@<TRIPOS>MOLECULE
FXW
   58    63     1     0     0
SMALL
No Charge or Current Charge


@<TRIPOS>ATOM
      1 C1          -2.5840     0.0730    -0.2460 ca         1 FXW      -0.186500
      2 C2          -1.9380    -1.1540    -0.4760 ca         1 FXW       0.007200
      3 C3          -2.7010    -2.3310    -0.5500 ca         1 FXW      -0.163500
      4 C4          -4.0930    -2.2770    -0.3910 ca         1 FXW       0.029500
      5 C5          -4.7210    -1.0390    -0.1660 ca         1 FXW      -0.381500
      6 C6          -3.9840     0.1450    -0.1010 ca         1 FXW       0.411500
      7 C12          4.6040    -1.2140     0.2720 ca         1 FXW      -0.381500
      8 C13          3.9120    -0.0110     0.1590 ca         1 FXW       0.411500
      9 C14          2.5140    -0.0090     0.3100 ca         1 FXW      -0.186500
     10 C11          3.9250    -2.4180     0.5300 ca         1 FXW       0.029500
     11 S1          -6.4660    -0.9890     0.0980 sy         1 FXW       1.151600
     12 O4           7.0160    -1.5870     1.3070 o          1 FXW      -0.528500
     13 C21          4.8460     3.4220    -1.4140 cx         1 FXW      -0.139400
     14 O2          -7.1630    -1.2320    -1.1670 o          1 FXW      -0.528500
     15 C8           0.3020    -1.1830     0.7290 c3         1 FXW      -0.040100
     16 C9           1.8150    -1.2020     0.5710 ca         1 FXW       0.007200
     17 C10          2.5300    -2.4080     0.6780 ca         1 FXW      -0.163500
     18 C15         -6.0070     1.4590    -0.3680 c6         1 FXW       0.461500
     19 C16          5.9180     1.2360     0.5760 c6         1 FXW       0.461500
     20 C17         -3.9550     2.5270     0.7660 cx         1 FXW       0.167500
     21 C22          4.0010     3.6950    -0.1910 cx         1 FXW      -0.139400
     22 C7          -0.4240    -1.2030    -0.6320 c3         1 FXW      -0.040100
     23 N1          -6.7330     0.5920     0.4950 n7         1 FXW      -0.847800
     24 N2          -4.6390     1.3760     0.1320 nh         1 FXW      -0.835900
     25 S2           6.3600    -1.2160     0.0500 sy         1 FXW       1.151600
     26 N3           6.7180     0.3760    -0.2270 n7         1 FXW      -0.847800
     27 N4           4.6260     1.1740    -0.0950 nh         1 FXW      -0.835900
     28 C18         -3.0300     3.4000    -0.0520 cx         1 FXW      -0.139400
     29 C19         -4.3320     3.9600     0.4460 cx         1 FXW      -0.139400
     30 C20          4.0140     2.3190    -0.8070 cx         1 FXW       0.167500
     31 O1          -6.7860    -1.7650     1.2980 o          1 FXW      -0.528500
     32 O3           6.6730    -1.9150    -1.1990 o          1 FXW      -0.528500
     33 H1          -1.9820     0.9720    -0.1900 ha         1 FXW       0.117000
     34 H2          -2.2160    -3.2890    -0.7200 ha         1 FXW       0.122500
     35 H3          -4.6760    -3.1960    -0.4340 ha         1 FXW       0.130500
     36 H10          1.9630     0.9230     0.2420 ha         1 FXW       0.117000
     37 H9           4.4700    -3.3580     0.6110 ha         1 FXW       0.130500
     38 H24          4.5110     3.8340    -2.3630 hc         1 FXW       0.081950
     39 H23          5.9250     3.3910    -1.2950 hc         1 FXW       0.081950
     40 H6          -0.0310    -2.0420     1.3250 hc         1 FXW       0.057200
     41 H7          -0.0030    -0.2890     1.2860 hc         1 FXW       0.057200
     42 H8           2.0040    -3.3400     0.8750 ha         1 FXW       0.122500
     43 H13         -6.0820     1.1550    -1.4270 h2         1 FXW       0.088200
     44 H12         -6.4020     2.4800    -0.2580 h2         1 FXW       0.088200
     45 H15          5.8630     0.8930     1.6240 h2         1 FXW       0.088200
     46 H16          6.3250     2.2590     0.5510 h2         1 FXW       0.088200
     47 H17         -3.6580     2.3350     1.7990 h1         1 FXW       0.090200
     48 H25          4.5070     3.8340     0.7600 hc         1 FXW       0.081950
     49 H26          3.0990     4.2890    -0.3170 hc         1 FXW       0.081950
     50 H5          -0.1260    -2.1030    -1.1840 hc         1 FXW       0.057200
     51 H4          -0.0850    -0.3510    -1.2330 hc         1 FXW       0.057200
     52 H11         -6.1960     0.6500     1.3510 hn         1 FXW       0.482500
     53 H14          6.2850     0.4890    -1.1370 hn         1 FXW       0.482500
     54 H18         -2.1130     3.7410     0.4210 hc         1 FXW       0.081950
     55 H19         -2.9450     3.1890    -1.1150 hc         1 FXW       0.081950
     56 H21         -5.0920     4.1640    -0.3020 hc         1 FXW       0.081950
     57 H20         -4.2950     4.6790     1.2600 hc         1 FXW       0.081950
     58 H22          3.1340     2.0410    -1.3920 h1         1 FXW       0.090200
@<TRIPOS>BOND
     1     1     2 ar  
     2     1     6 ar  
     3     1    33 1   
     4     2     3 ar  
     5     2    22 1   
     6     3     4 ar  
     7     3    34 1   
     8     4     5 ar  
     9     4    35 1   
    10     5     6 ar  
    11     5    11 1   
    12     6    24 1   
    13     7     8 ar  
    14     7    10 ar  
    15     7    25 1   
    16     8     9 ar  
    17     8    27 1   
    18     9    16 ar  
    19     9    36 1   
    20    10    17 ar  
    21    10    37 1   
    22    11    14 2   
    23    11    23 1   
    24    11    31 2   
    25    12    25 2   
    26    13    21 1   
    27    13    30 1   
    28    13    38 1   
    29    13    39 1   
    30    15    16 1   
    31    15    22 1   
    32    15    40 1   
    33    15    41 1   
    34    16    17 ar  
    35    17    42 1   
    36    18    23 1   
    37    18    24 1   
    38    18    43 1   
    39    18    44 1   
    40    19    26 1   
    41    19    27 1   
    42    19    45 1   
    43    19    46 1   
    44    20    24 1   
    45    20    28 1   
    46    20    29 1   
    47    20    47 1   
    48    21    30 1   
    49    21    48 1   
    50    21    49 1   
    51    22    50 1   
    52    22    51 1   
    53    23    52 1   
    54    25    26 1   
    55    25    32 2   
    56    26    53 1   
    57    27    30 1   
    58    28    29 1   
    59    28    54 1   
    60    28    55 1   
    61    29    56 1   
    62    29    57 1   
    63    30    58 1   
@<TRIPOS>SUBSTRUCTURE
     1 FXW         1 TEMP              0 ****  ****    0 ROOT
