@<TRIPOS>MOLECULE
FXW
   58    63     1     0     0
SMALL
abcg2


@<TRIPOS>ATOM
      1 C1          -2.5590     0.1680    -0.2570 ca         1 FXW      -0.186500
      2 C2          -1.8970    -1.0150    -0.5390 ca         1 FXW       0.007200
      3 C3          -2.6100    -2.2120    -0.6360 ca         1 FXW      -0.163500
      4 C4          -3.9740    -2.2020    -0.4370 ca         1 FXW       0.029500
      5 C5          -4.6380    -1.0100    -0.1700 ca         1 FXW      -0.381500
      6 C6          -3.9540     0.2220    -0.0790 ca         1 FXW       0.411500
      7 C12          4.5300    -1.1880     0.2840 ca         1 FXW      -0.381500
      8 C13          3.8550     0.0420     0.3830 ca         1 FXW       0.411500
      9 C14          2.4610    -0.0100     0.5280 ca         1 FXW      -0.186500
     10 C11          3.8430    -2.3980     0.3410 ca         1 FXW       0.029500
     11 S1          -6.3610    -1.0550     0.1200 sy         1 FXW       1.151600
     12 O4           6.9160    -1.6840     1.2420 o          1 FXW      -0.528500
     13 C21          4.7420     3.2790    -1.2120 cx         1 FXW      -0.139400
     14 O2          -7.0870    -0.7950    -1.1130 o          1 FXW      -0.528500
     15 C8           0.2740    -1.2060     0.6970 c3         1 FXW      -0.040100
     16 C9           1.7700    -1.2090     0.5730 ca         1 FXW       0.007200
     17 C10          2.4720    -2.4140     0.4810 ca         1 FXW      -0.163500
     18 C15         -6.0130     1.4790     0.4810 c6         1 FXW       0.461500
     19 C16          5.9420     1.2070     0.6200 c6         1 FXW       0.461500
     20 C17         -3.8430     2.6200     0.2930 cx         1 FXW       0.167500
     21 C22          4.2170     3.7810     0.1090 cx         1 FXW      -0.139400
     22 C7          -0.4010    -1.0110    -0.6700 c3         1 FXW      -0.040100
     23 N1          -6.5520     0.2820     1.0790 n7         1 FXW      -0.847800
     24 N2          -4.5850     1.4030     0.1950 nh         1 FXW      -0.835900
     25 S2           6.2690    -1.2710     0.0080 sy         1 FXW       1.151600
     26 N3           6.6670     0.3090    -0.2710 n7         1 FXW      -0.847800
     27 N4           4.5270     1.2460     0.3640 nh         1 FXW      -0.835900
     28 C18         -3.2290     3.2180    -0.9370 cx         1 FXW      -0.139400
     29 C19         -4.4210     3.8630    -0.3100 cx         1 FXW      -0.139400
     30 C20          3.9490     2.3780    -0.3170 cx         1 FXW       0.167500
     31 O1          -6.7070    -2.2290     0.9010 o          1 FXW      -0.528500
     32 O3           6.5470    -2.0290    -1.2010 o          1 FXW      -0.528500
     33 H1          -1.9740     1.0740    -0.1720 ha         1 FXW       0.117000
     34 H2          -2.0980    -3.1400    -0.8560 ha         1 FXW       0.122500
     35 H3          -4.5330    -3.1280    -0.4870 ha         1 FXW       0.130500
     36 H10          1.9070     0.9130     0.6470 ha         1 FXW       0.117000
     37 H9           4.3830    -3.3340     0.2620 ha         1 FXW       0.130500
     38 H24          4.2680     3.6150    -2.1250 hc         1 FXW       0.081950
     39 H23          5.8110     3.1350    -1.3060 hc         1 FXW       0.081950
     40 H6          -0.0640    -2.1460     1.1370 hc         1 FXW       0.057200
     41 H7          -0.0440    -0.4060     1.3700 hc         1 FXW       0.057200
     42 H8           1.9420    -3.3570     0.5270 ha         1 FXW       0.122500
     43 H13         -6.5830     1.7010    -0.4240 h2         1 FXW       0.088200
     44 H12         -6.1790     2.2940     1.1820 h2         1 FXW       0.088200
     45 H15          6.1250     0.8780     1.6440 h2         1 FXW       0.088200
     46 H16          6.3730     2.2000     0.5330 h2         1 FXW       0.088200
     47 H17         -3.2880     2.7450     1.2200 h1         1 FXW       0.090200
     48 H25          4.9420     3.9420     0.8980 hc         1 FXW       0.081950
     49 H26          3.3940     4.4840     0.1150 hc         1 FXW       0.081950
     50 H5          -0.0830    -1.8070    -1.3470 hc         1 FXW       0.057200
     51 H4          -0.0650    -0.0670    -1.1050 hc         1 FXW       0.057200
     52 H11         -6.2240     0.1130     2.0270 hn         1 FXW       0.482500
     53 H14          6.5870     0.5530    -1.2550 hn         1 FXW       0.482500
     54 H18         -2.2610     3.6900    -0.8330 hc         1 FXW       0.081950
     55 H19         -3.3790     2.6930    -1.8720 hc         1 FXW       0.081950
     56 H21         -5.3640     3.7920    -0.8360 hc         1 FXW       0.081950
     57 H20         -4.2870     4.7850     0.2410 hc         1 FXW       0.081950
     58 H22          2.9460     2.1710    -0.6610 h1         1 FXW       0.090200
@<TRIPOS>BOND
     1     1     2 ar  
     2     1     6 ar  
     3     1    33 1   
     4     2     3 ar  
     5     2    22 1   
     6     3     4 ar  
     7     3    34 1   
     8     4     5 ar  
     9     4    35 1   
    10     5     6 ar  
    11     5    11 1   
    12     6    24 1   
    13     7     8 ar  
    14     7    10 ar  
    15     7    25 1   
    16     8     9 ar  
    17     8    27 1   
    18     9    16 ar  
    19     9    36 1   
    20    10    17 ar  
    21    10    37 1   
    22    11    14 2   
    23    11    23 1   
    24    11    31 2   
    25    12    25 2   
    26    13    21 1   
    27    13    30 1   
    28    13    38 1   
    29    13    39 1   
    30    15    16 1   
    31    15    22 1   
    32    15    40 1   
    33    15    41 1   
    34    16    17 ar  
    35    17    42 1   
    36    18    23 1   
    37    18    24 1   
    38    18    43 1   
    39    18    44 1   
    40    19    26 1   
    41    19    27 1   
    42    19    45 1   
    43    19    46 1   
    44    20    24 1   
    45    20    28 1   
    46    20    29 1   
    47    20    47 1   
    48    21    30 1   
    49    21    48 1   
    50    21    49 1   
    51    22    50 1   
    52    22    51 1   
    53    23    52 1   
    54    25    26 1   
    55    25    32 2   
    56    26    53 1   
    57    27    30 1   
    58    28    29 1   
    59    28    54 1   
    60    28    55 1   
    61    29    56 1   
    62    29    57 1   
    63    30    58 1   
@<TRIPOS>SUBSTRUCTURE
     1 FXW         1 TEMP              0 ****  ****    0 ROOT
