@<TRIPOS>MOLECULE
FXX
   30    30     1     0     0
SMALL
bcc


@<TRIPOS>ATOM
      1 C           -2.3000    13.2440    10.1170 c3         1 FXX       0.854700
      2 C1          -1.7020    10.1210    10.2170 ca         1 FXX      -0.170000
      3 C2          -2.2090    11.0440     9.3190 ca         1 FXX       0.115100
      4 C3          -2.0680    10.8950     7.9540 ca         1 FXX      -0.195000
      5 C4          -1.3910     9.7830     7.4420 ca         1 FXX       0.112600
      6 C5          -0.8630     8.8460     8.3330 ca         1 FXX      -0.151000
      7 C6          -1.0280     9.0270     9.6990 ca         1 FXX      -0.098000
      8 O7          -2.9510    12.1210     9.7940 os         1 FXX      -0.385900
      9 N8          -1.2850     9.6970     6.0550 ns         1 FXX      -0.484100
     10 C9          -0.8180     8.6690     5.2880 c          1 FXX       0.662100
     11 C10         -0.7730     9.0010     3.8000 c3         1 FXX       0.121500
     12 N11         -0.9580     7.7900     3.0290 n8         1 FXX      -0.871800
     13 O12         -0.4380     7.6090     5.7430 o          1 FXX      -0.571100
     14 C17          0.5960     9.6180     3.5030 c3         1 FXX      -0.218400
     15 C18          0.8050    10.1370     2.0610 c          1 FXX       0.935600
     16 O19         -0.1520    10.0570     1.2630 o          1 FXX      -0.838800
     17 O20          1.9350    10.6050     1.8280 o          1 FXX      -0.838800
     18 F13         -1.6690    13.7950     9.0770 f          1 FXX      -0.234633
     19 F14         -1.3840    13.0570    11.0680 f          1 FXX      -0.234633
     20 F16         -3.1940    14.1120    10.5660 f          1 FXX      -0.234633
     21 H2          -2.5000    11.6280     7.2830 ha         1 FXX       0.148000
     22 H3          -0.3340     7.9790     7.9760 ha         1 FXX       0.175000
     23 H4          -0.6180     8.2890    10.3760 ha         1 FXX       0.131000
     24 H5          -1.6340    10.4980     5.5490 hn         1 FXX       0.325500
     25 H6          -1.5400     9.7640     3.5930 h1         1 FXX       0.022700
     26 H7          -1.8970     7.4360     3.1610 hn         1 FXX       0.350300
     27 H8          -0.8920     8.0570     2.0540 hn         1 FXX       0.350300
     28 H10          1.3720     8.8780     3.7260 hc         1 FXX       0.040200
     29 H11          0.7750    10.4540     4.1860 hc         1 FXX       0.040200
     30 H1          -1.8400    10.2410    11.2820 ha         1 FXX       0.142000
@<TRIPOS>BOND
     1     1     8 1   
     2     1    18 1   
     3     1    19 1   
     4     1    20 1   
     5     2     3 ar  
     6     2     7 ar  
     7     2    30 1   
     8     3     4 ar  
     9     3     8 1   
    10     4     5 ar  
    11     4    21 1   
    12     5     6 ar  
    13     5     9 1   
    14     6     7 ar  
    15     6    22 1   
    16     7    23 1   
    17     9    10 1   
    18     9    24 1   
    19    10    11 1   
    20    10    13 2   
    21    11    12 1   
    22    11    14 1   
    23    11    25 1   
    24    12    26 1   
    25    12    27 1   
    26    14    15 1   
    27    14    28 1   
    28    14    29 1   
    29    15    16 1   
    30    15    17 1   
@<TRIPOS>SUBSTRUCTURE
     1 FXX         1 TEMP              0 ****  ****    0 ROOT
