@<TRIPOS>MOLECULE
FXX
   30    30     1     0     0
SMALL
No Charge or Current Charge


@<TRIPOS>ATOM
      1 C           -3.1710    12.9320    10.7830 c3         1 FXX       0.514000
      2 C1          -1.3640    10.6670    10.1310 ca         1 FXX      -0.152000
      3 C2          -2.0710    11.3980     9.1520 ca         1 FXX       0.115100
      4 C3          -1.9260    11.0540     7.7980 ca         1 FXX      -0.177000
      5 C4          -1.0920     9.9930     7.3990 ca         1 FXX       0.020000
      6 C5          -0.3880     9.2710     8.3870 ca         1 FXX      -0.133000
      7 C6          -0.5270     9.6090     9.7440 ca         1 FXX      -0.080000
      8 O7          -2.9130    12.4540     9.4470 os         1 FXX      -0.409100
      9 N8          -1.0040     9.7170     6.0070 ns         1 FXX      -0.158000
     10 C9          -0.3490     8.7260     5.2860 c          1 FXX       0.595100
     11 C10         -0.5380     8.8450     3.7230 c3         1 FXX       0.121500
     12 N11         -1.2490     7.7000     3.0650 n8         1 FXX      -0.982200
     13 O12          0.3100     7.8250     5.8020 o          1 FXX      -0.571100
     14 C17          0.8080     9.1090     3.0000 c3         1 FXX      -0.218400
     15 C18          0.5730     9.8960     1.7060 c          1 FXX       0.725000
     16 O19          0.5380    11.1150     1.7760 o          1 FXX      -0.733500
     17 O20          0.3830     9.2710     0.6730 o          1 FXX      -0.733500
     18 F13         -2.0450    13.3710    11.3940 f          1 FXX      -0.113333
     19 F14         -3.7270    11.9800    11.5680 f          1 FXX      -0.113333
     20 F16         -4.0330    13.9720    10.7580 f          1 FXX      -0.113333
     21 H2          -2.4730    11.6220     7.0510 ha         1 FXX       0.130000
     22 H3           0.2730     8.4510     8.1290 ha         1 FXX       0.157000
     23 H4           0.0200     9.0470    10.5000 ha         1 FXX       0.113000
     24 H5          -1.5160    10.3740     5.4310 hn         1 FXX       0.159000
     25 H6          -1.1680     9.7310     3.5610 h1         1 FXX       0.022700
     26 H7          -2.2360     7.6920     3.3510 hn         1 FXX       0.405500
     27 H8          -1.2870     7.8730     2.0520 hn         1 FXX       0.405500
     28 H10          1.2630     8.1330     2.7930 hc         1 FXX       0.040200
     29 H11          1.3990     9.7260     3.6880 hc         1 FXX       0.040200
     30 H1          -1.4470    10.8990    11.1880 ha         1 FXX       0.124000
@<TRIPOS>BOND
     1     1     8 1   
     2     1    18 1   
     3     1    19 1   
     4     1    20 1   
     5     2     3 ar  
     6     2     7 ar  
     7     2    30 1   
     8     3     4 ar  
     9     3     8 1   
    10     4     5 ar  
    11     4    21 1   
    12     5     6 ar  
    13     5     9 1   
    14     6     7 ar  
    15     6    22 1   
    16     7    23 1   
    17     9    10 1   
    18     9    24 1   
    19    10    11 1   
    20    10    13 2   
    21    11    12 1   
    22    11    14 1   
    23    11    25 1   
    24    12    26 1   
    25    12    27 1   
    26    14    15 1   
    27    14    28 1   
    28    14    29 1   
    29    15    16 1   
    30    15    17 1   
@<TRIPOS>SUBSTRUCTURE
     1 FXX         1 TEMP              0 ****  ****    0 ROOT
