@<TRIPOS>MOLECULE
FXY
   30    29     1     0     0
SMALL
No Charge or Current Charge


@<TRIPOS>ATOM
      1 O10          1.6390    -0.7080    -3.8230 o          1 FXY      -0.608100
      2 C9           1.5220     0.3770    -3.2680 c          1 FXY       0.597900
      3 N8           0.4700     0.6840    -2.4310 ns         1 FXY      -0.514900
      4 C1          -0.6340    -0.2210    -2.1030 c3         1 FXY       0.106700
      5 C25         -1.7460    -0.1140    -3.1660 c3         1 FXY      -0.109100
      6 C2          -1.1670     0.0460    -0.6750 c3         1 FXY      -0.089400
      7 C3          -0.1130    -0.1580     0.4400 c3         1 FXY      -0.073400
      8 C4          -0.6860     0.0640     1.8570 c3         1 FXY      -0.076400
      9 C5           0.3640    -0.1400     2.9720 c3         1 FXY      -0.075400
     10 C6          -0.2090     0.0820     4.3890 c3         1 FXY      -0.075400
     11 C7           0.8370    -0.1210     5.5020 c3         1 FXY      -0.088100
     12 H9           2.2380     1.2130    -3.3770 h5         1 FXY       0.002200
     13 HN8          0.4720     1.6120    -2.0250 hn         1 FXY       0.309500
     14 H1          -0.2520    -1.2520    -2.1250 h1         1 FXY       0.076700
     15 H251        -2.1640     0.8990    -3.1920 hc         1 FXY       0.041700
     16 H252        -1.3540    -0.3500    -4.1620 hc         1 FXY       0.041700
     17 H253        -2.5580    -0.8170    -2.9470 hc         1 FXY       0.041700
     18 H21         -2.0130    -0.6260    -0.4840 hc         1 FXY       0.043700
     19 H22         -1.5590     1.0690    -0.6200 hc         1 FXY       0.043700
     20 H31          0.7260     0.5310     0.2850 hc         1 FXY       0.042200
     21 H32          0.2920    -1.1760     0.3710 hc         1 FXY       0.042200
     22 H41         -1.5220    -0.6280     2.0200 hc         1 FXY       0.036700
     23 H42         -1.0920     1.0810     1.9260 hc         1 FXY       0.036700
     24 H51          1.2000     0.5520     2.8100 hc         1 FXY       0.038200
     25 H52          0.7700    -1.1560     2.9030 hc         1 FXY       0.038200
     26 H61         -1.0450    -0.6090     4.5560 hc         1 FXY       0.036200
     27 H62         -0.6150     1.0990     4.4630 hc         1 FXY       0.036200
     28 H71          0.3860     0.0470     6.4870 hc         1 FXY       0.032033
     29 H72          1.2380    -1.1420     5.4770 hc         1 FXY       0.032033
     30 H73          1.6710     0.5820     5.3830 hc         1 FXY       0.032033
@<TRIPOS>BOND
     1     1     2 2   
     2     2     3 1   
     3     2    12 1   
     4     3     4 1   
     5     3    13 1   
     6     4     5 1   
     7     4     6 1   
     8     4    14 1   
     9     5    15 1   
    10     5    16 1   
    11     5    17 1   
    12     6     7 1   
    13     6    18 1   
    14     6    19 1   
    15     7     8 1   
    16     7    20 1   
    17     7    21 1   
    18     8     9 1   
    19     8    22 1   
    20     8    23 1   
    21     9    10 1   
    22     9    24 1   
    23     9    25 1   
    24    10    11 1   
    25    10    26 1   
    26    10    27 1   
    27    11    28 1   
    28    11    29 1   
    29    11    30 1   
@<TRIPOS>SUBSTRUCTURE
     1 FXY         1 TEMP              0 ****  ****    0 ROOT
