@<TRIPOS>MOLECULE
FXY
   30    29     1     0     0
SMALL
bcc


@<TRIPOS>ATOM
      1 O10          1.6430    -0.8110    -3.7220 o          1 FXY      -0.608100
      2 C9           1.5010     0.2800    -3.1940 c          1 FXY       0.664900
      3 N8           0.4900     0.6350    -2.3980 ns         1 FXY      -0.581900
      4 C1          -0.6380    -0.2210    -2.0690 c3         1 FXY       0.106700
      5 C25         -1.7520    -0.0780    -3.1000 c3         1 FXY      -0.109100
      6 C2          -1.1340     0.0860    -0.6590 c3         1 FXY      -0.089400
      7 C3          -0.0890    -0.1100     0.4330 c3         1 FXY      -0.073400
      8 C4          -0.6720     0.0500     1.8330 c3         1 FXY      -0.076400
      9 C5           0.3630    -0.1040     2.9390 c3         1 FXY      -0.075400
     10 C6          -0.2280     0.0270     4.3380 c3         1 FXY      -0.075400
     11 C7           0.8140    -0.1120     5.4390 c3         1 FXY      -0.088100
     12 H9           2.2270     1.0980    -3.3270 h5         1 FXY       0.002200
     13 HN8          0.4720     1.5890    -2.0700 hn         1 FXY       0.309500
     14 H1          -0.2720    -1.2500    -2.0870 h1         1 FXY       0.076700
     15 H251        -2.1310     0.9450    -3.1240 hc         1 FXY       0.041700
     16 H252        -1.3980    -0.3330    -4.0990 hc         1 FXY       0.041700
     17 H253        -2.5860    -0.7390    -2.8590 hc         1 FXY       0.041700
     18 H21         -1.9890    -0.5660    -0.4610 hc         1 FXY       0.043700
     19 H22         -1.5220     1.1110    -0.6250 hc         1 FXY       0.043700
     20 H31          0.7310     0.6020     0.3010 hc         1 FXY       0.042200
     21 H32          0.3550    -1.1070     0.3380 hc         1 FXY       0.042200
     22 H41         -1.4700    -0.6870     1.9780 hc         1 FXY       0.036700
     23 H42         -1.1500     1.0320     1.9170 hc         1 FXY       0.036700
     24 H51          1.1500     0.6470     2.8060 hc         1 FXY       0.038200
     25 H52          0.8560    -1.0790     2.8450 hc         1 FXY       0.038200
     26 H61         -1.0070    -0.7310     4.4720 hc         1 FXY       0.036200
     27 H62         -0.7310     0.9950     4.4270 hc         1 FXY       0.036200
     28 H71          0.3670    -0.0240     6.4300 hc         1 FXY       0.032033
     29 H72          1.3120    -1.0830     5.3890 hc         1 FXY       0.032033
     30 H73          1.5840     0.6560     5.3520 hc         1 FXY       0.032033
@<TRIPOS>BOND
     1     1     2 2   
     2     2     3 1   
     3     2    12 1   
     4     3     4 1   
     5     3    13 1   
     6     4     5 1   
     7     4     6 1   
     8     4    14 1   
     9     5    15 1   
    10     5    16 1   
    11     5    17 1   
    12     6     7 1   
    13     6    18 1   
    14     6    19 1   
    15     7     8 1   
    16     7    20 1   
    17     7    21 1   
    18     8     9 1   
    19     8    22 1   
    20     8    23 1   
    21     9    10 1   
    22     9    24 1   
    23     9    25 1   
    24    10    11 1   
    25    10    26 1   
    26    10    27 1   
    27    11    28 1   
    28    11    29 1   
    29    11    30 1   
@<TRIPOS>SUBSTRUCTURE
     1 FXY         1 TEMP              0 ****  ****    0 ROOT
