@<TRIPOS>MOLECULE
FY0
   34    34     1     0     0
SMALL
bcc


@<TRIPOS>ATOM
      1 C1          -0.2300    -0.9600     0.9620 ca         1 FY0      -0.089500
      2 C2          -1.4550    -1.3340     0.4330 ca         1 FY0      -0.240000
      3 C3          -2.3190    -0.3900    -0.1350 ca         1 FY0       0.301100
      4 C4          -1.9090     0.9490    -0.1350 ca         1 FY0      -0.240000
      5 C5          -0.6810     1.3050     0.4040 ca         1 FY0      -0.089500
      6 C6           0.1860     0.3690     0.9630 ca         1 FY0      -0.190300
      7 O1          -3.4670    -0.8250    -0.6570 os         1 FY0      -0.443500
      8 P1          -4.9370     0.1300    -0.7090 p5         1 FY0       1.277900
      9 O2          -5.9090    -0.9500    -1.1480 o          1 FY0      -0.914167
     10 O3          -5.0880     0.6210     0.7190 o          1 FY0      -0.914167
     11 O4          -4.6580     1.2080    -1.7450 o          1 FY0      -0.914167
     12 C7           1.5320     0.7740     1.4940 c3         1 FY0       0.026900
     13 C8           2.6380     0.7190     0.4300 c3         1 FY0      -0.187700
     14 C9           2.8160    -0.7170    -0.1020 c          1 FY0       0.933600
     15 O5           3.1910    -1.5680     0.7380 o          1 FY0      -0.851300
     16 O6           2.5910    -0.9210    -1.3080 o          1 FY0      -0.851300
     17 C10          3.9520     1.2370     1.0320 c3         1 FY0      -0.133400
     18 C11          5.0800     1.2080     0.0250 c          1 FY0       0.680100
     19 N1           5.8030     0.0780     0.0080 ns         1 FY0      -0.570900
     20 C12          6.8220    -0.1780    -0.9810 c3         1 FY0       0.107300
     21 O7           5.3080     2.1450    -0.7340 o          1 FY0      -0.669100
     22 H1           0.4190    -1.7200     1.3820 ha         1 FY0       0.090000
     23 H2          -1.7540    -2.3760     0.4510 ha         1 FY0       0.133500
     24 H3          -2.5430     1.7030    -0.5800 ha         1 FY0       0.133500
     25 H4          -0.3890     2.3500     0.3880 ha         1 FY0       0.090000
     26 H7           1.4760     1.7920     1.8910 hc         1 FY0       0.002200
     27 H8           1.8210     0.1290     2.3280 hc         1 FY0       0.002200
     28 H9           2.3500     1.3770    -0.3970 hc         1 FY0       0.057700
     29 H11          3.8220     2.2680     1.3670 hc         1 FY0       0.033700
     30 H12          4.2060     0.6380     1.9100 hc         1 FY0       0.033700
     31 H13          5.4720    -0.6980     0.5600 hn         1 FY0       0.349500
     32 H14          7.2820    -1.1380    -0.7620 h1         1 FY0       0.015700
     33 H15          6.4140    -0.2160    -1.9930 h1         1 FY0       0.015700
     34 H16          7.5990     0.5850    -0.9560 h1         1 FY0       0.015700
@<TRIPOS>BOND
     1     1     2 ar  
     2     1     6 ar  
     3     1    22 1   
     4     2     3 ar  
     5     2    23 1   
     6     3     4 ar  
     7     3     7 1   
     8     4     5 ar  
     9     4    24 1   
    10     5     6 ar  
    11     5    25 1   
    12     6    12 1   
    13     7     8 1   
    14     8     9 1   
    15     8    10 1   
    16     8    11 1   
    17    12    13 1   
    18    12    26 1   
    19    12    27 1   
    20    13    14 1   
    21    13    17 1   
    22    13    28 1   
    23    14    15 1   
    24    14    16 1   
    25    17    18 1   
    26    17    29 1   
    27    17    30 1   
    28    18    19 1   
    29    18    21 2   
    30    19    20 1   
    31    19    31 1   
    32    20    32 1   
    33    20    33 1   
    34    20    34 1   
@<TRIPOS>SUBSTRUCTURE
     1 FY0         1 TEMP              0 ****  ****    0 ROOT
