@<TRIPOS>MOLECULE
FY0
   34    34     1     0     0
SMALL
No Charge or Current Charge


@<TRIPOS>ATOM
      1 C1          -0.4230    -1.0800     1.2470 ca         1 FY0      -0.071500
      2 C2          -1.7190    -1.3500     0.7770 ca         1 FY0      -0.222000
      3 C3          -2.4800    -0.3460     0.1560 ca         1 FY0       0.301100
      4 C4          -1.9260     0.9430     0.0050 ca         1 FY0      -0.222000
      5 C5          -0.6290     1.2150     0.4740 ca         1 FY0      -0.071500
      6 C6           0.1290     0.2060     1.0970 ca         1 FY0      -0.190300
      7 O1          -3.7390    -0.6820    -0.2750 os         1 FY0      -0.443500
      8 P1          -4.8380     0.2540    -0.9960 p5         1 FY0       1.277900
      9 O2          -6.0600    -0.5550    -1.2640 o          1 FY0      -0.914167
     10 O3          -5.2010     1.3980    -0.1130 o          1 FY0      -0.914167
     11 O4          -4.3070     0.7690    -2.2900 o          1 FY0      -0.914167
     12 C7           1.5320     0.5080     1.6120 c3         1 FY0       0.026900
     13 C8           2.6010     0.5220     0.4890 c3         1 FY0      -0.187700
     14 C9           2.7610    -0.8780    -0.1510 c          1 FY0       0.723000
     15 O5           3.2120    -1.7870     0.5310 o          1 FY0      -0.746000
     16 O6           2.5030    -1.0000    -1.3390 o          1 FY0      -0.746000
     17 C10          3.9670     1.0690     1.0040 c3         1 FY0      -0.133400
     18 C11          4.9990     1.1980    -0.1290 c          1 FY0       0.613100
     19 N1           5.9870     0.2420    -0.1280 ns         1 FY0      -0.503900
     20 C12          7.0780     0.1760    -1.0980 c3         1 FY0       0.107300
     21 O7           4.9730     2.1060    -0.9500 o          1 FY0      -0.669100
     22 H1           0.1520    -1.8700     1.7260 ha         1 FY0       0.072000
     23 H2          -2.1390    -2.3450     0.8960 ha         1 FY0       0.115500
     24 H3          -2.4870     1.7400    -0.4700 ha         1 FY0       0.115500
     25 H4          -0.2130     2.2130     0.3530 ha         1 FY0       0.072000
     26 H7           1.5250     1.4870     2.1060 hc         1 FY0       0.002200
     27 H8           1.8230    -0.2130     2.3860 hc         1 FY0       0.002200
     28 H9           2.2420     1.2050    -0.2890 hc         1 FY0       0.057700
     29 H11          3.8000     2.0640     1.4350 hc         1 FY0       0.033700
     30 H12          4.3420     0.3920     1.7810 hc         1 FY0       0.033700
     31 H13          5.9190    -0.4780     0.5820 hn         1 FY0       0.349500
     32 H14          7.7140    -0.6880    -0.8700 h1         1 FY0       0.015700
     33 H15          6.6660     0.0680    -2.1090 h1         1 FY0       0.015700
     34 H16          7.6770     1.0940    -1.0400 h1         1 FY0       0.015700
@<TRIPOS>BOND
     1     1     2 ar  
     2     1     6 ar  
     3     1    22 1   
     4     2     3 ar  
     5     2    23 1   
     6     3     4 ar  
     7     3     7 1   
     8     4     5 ar  
     9     4    24 1   
    10     5     6 ar  
    11     5    25 1   
    12     6    12 1   
    13     7     8 1   
    14     8     9 1   
    15     8    10 1   
    16     8    11 1   
    17    12    13 1   
    18    12    26 1   
    19    12    27 1   
    20    13    14 1   
    21    13    17 1   
    22    13    28 1   
    23    14    15 1   
    24    14    16 1   
    25    17    18 1   
    26    17    29 1   
    27    17    30 1   
    28    18    19 1   
    29    18    21 2   
    30    19    20 1   
    31    19    31 1   
    32    20    32 1   
    33    20    33 1   
    34    20    34 1   
@<TRIPOS>SUBSTRUCTURE
     1 FY0         1 TEMP              0 ****  ****    0 ROOT
