@<TRIPOS>MOLECULE
FY1
   39    40     1     0     0
SMALL
No Charge or Current Charge


@<TRIPOS>ATOM
      1 N16         -4.6940    -1.4610    -0.3870 no         1 FY1       0.694200
      2 C15         -4.7130    -0.1710     0.3640 ca         1 FY1      -0.120200
      3 C2           2.2040    -0.6390     0.5460 ca         1 FY1      -0.044900
      4 C1           1.0440    -0.3240    -0.1950 ca         1 FY1       0.181100
      5 C10         -3.7230     0.8350     0.1580 ca         1 FY1      -0.095600
      6 C9          -2.6630     0.7080    -0.9240 c          1 FY1       0.628700
      7 C12         -4.7680     2.1660     1.9390 ca         1 FY1      -0.080000
      8 C14         -5.7180     0.0150     1.3390 ca         1 FY1      -0.061000
      9 C8           0.0290    -4.1660    -0.5560 c3         1 FY1       0.142900
     10 C7          -0.3230     1.3710    -1.5840 c3         1 FY1       0.154300
     11 C6           0.9390     0.9360    -0.8410 ca         1 FY1      -0.153300
     12 C5           2.0220     1.8370    -0.7680 ca         1 FY1      -0.057000
     13 C4           3.1820     1.5010    -0.0530 ca         1 FY1      -0.038900
     14 C3           3.2730     0.2690     0.6100 ca         1 FY1      -0.040000
     15 O17         -2.8480     0.0870    -1.9620 o          1 FY1      -0.590100
     16 O25          0.5140    -3.1400    -1.4420 os         1 FY1      -0.459000
     17 C21         -0.2770    -1.9380    -1.4540 c3         1 FY1       0.381600
     18 Br1          2.3580    -2.2990     1.4940 br         1 FY1      -0.059100
     19 Br2          4.6370     2.7400     0.0370 br         1 FY1      -0.085100
     20 N8          -1.4880     1.3910    -0.6990 ns         1 FY1      -0.484900
     21 O19         -3.6940    -2.1790    -0.2550 o          1 FY1      -0.382000
     22 O18         -5.7660    -1.8590    -0.8630 o          1 FY1      -0.382000
     23 C11         -3.7680     1.9990     0.9670 ca         1 FY1      -0.097000
     24 C13         -5.7450     1.1780     2.1220 ca         1 FY1      -0.097000
     25 H1          -4.7910     3.0700     2.5450 ha         1 FY1       0.128000
     26 H2          -6.4730    -0.7530     1.5030 ha         1 FY1       0.149000
     27 H3          -0.0340    -3.8020     0.4770 h1         1 FY1       0.038700
     28 H4          -0.9690    -4.5050    -0.8620 h1         1 FY1       0.038700
     29 H5           0.7030    -5.0320    -0.5720 h1         1 FY1       0.038700
     30 H6          -0.1890     2.3840    -1.9860 h1         1 FY1       0.064700
     31 H7          -0.4990     0.7110    -2.4420 h1         1 FY1       0.064700
     32 H8           1.9630     2.8070    -1.2580 ha         1 FY1       0.129000
     33 H9           4.1680     0.0200     1.1750 ha         1 FY1       0.146000
     34 H10         -0.0260    -1.3290    -2.3290 h2         1 FY1       0.071200
     35 H11         -1.3430    -2.1830    -1.5210 h2         1 FY1       0.071200
     36 H12         -1.4010     1.8630     0.1920 hn         1 FY1       0.323500
     37 H13         -3.0480     2.8020     0.8310 ha         1 FY1       0.127000
     38 H14         -6.5200     1.3110     2.8740 ha         1 FY1       0.131000
     39 O20          0.0030    -1.2260    -0.2360 os         1 FY1      -0.378100
@<TRIPOS>BOND
     1     1     2 1   
     2     1    21 1   
     3     1    22 1   
     4     2     5 ar  
     5     2     8 ar  
     6     3     4 ar  
     7     3    14 ar  
     8     3    18 1   
     9     4    11 ar  
    10     4    39 1   
    11     5     6 1   
    12     5    23 ar  
    13     6    15 2   
    14     6    20 1   
    15     7    23 ar  
    16     7    24 ar  
    17     7    25 1   
    18     8    24 ar  
    19     8    26 1   
    20     9    16 1   
    21     9    27 1   
    22     9    28 1   
    23     9    29 1   
    24    10    11 1   
    25    10    20 1   
    26    10    30 1   
    27    10    31 1   
    28    11    12 ar  
    29    12    13 ar  
    30    12    32 1   
    31    13    14 ar  
    32    13    19 1   
    33    14    33 1   
    34    16    17 1   
    35    17    34 1   
    36    17    35 1   
    37    17    39 1   
    38    20    36 1   
    39    23    37 1   
    40    24    38 1   
@<TRIPOS>SUBSTRUCTURE
     1 FY1         1 TEMP              0 ****  ****    0 ROOT
