@<TRIPOS>MOLECULE
FY1
   39    40     1     0     0
SMALL
abcg2


@<TRIPOS>ATOM
      1 N16         -4.1340    -1.5200     0.3610 no         1 FY1       0.694200
      2 C15         -4.4940    -0.1500     0.6940 ca         1 FY1      -0.120200
      3 C2           2.1980    -0.7720     0.4400 ca         1 FY1      -0.044900
      4 C1           1.0370    -0.4110    -0.2410 ca         1 FY1       0.181100
      5 C10         -3.7000     0.9060     0.2550 ca         1 FY1      -0.095600
      6 C9          -2.6210     0.7110    -0.7700 c          1 FY1       0.628700
      7 C12         -5.1480     2.4000     1.4830 ca         1 FY1      -0.080000
      8 C14         -5.6010     0.0420     1.4990 ca         1 FY1      -0.061000
      9 C8          -0.1380    -4.1940    -0.9150 c3         1 FY1       0.142900
     10 C7          -0.3420     1.3690    -1.4060 c3         1 FY1       0.154300
     11 C6           0.9240     0.8930    -0.7390 ca         1 FY1      -0.153300
     12 C5           1.9740     1.7850    -0.5790 ca         1 FY1      -0.057000
     13 C4           3.1300     1.3910     0.0760 ca         1 FY1      -0.038900
     14 C3           3.2520     0.1180     0.6050 ca         1 FY1      -0.040000
     15 O17         -2.8480     0.0650    -1.7800 o          1 FY1      -0.590100
     16 O25          0.5270    -3.1680    -1.6250 os         1 FY1      -0.459000
     17 C21         -0.1220    -1.9560    -1.6160 c3         1 FY1       0.381600
     18 BR1          2.3470    -2.4810     1.2060 br         1 FY1      -0.059100
     19 BR2          4.5490     2.6150     0.2790 br         1 FY1      -0.085100
     20 N8          -1.4720     1.3450    -0.5050 ns         1 FY1      -0.484900
     21 O19         -2.9720    -1.8290     0.4620 o          1 FY1      -0.382000
     22 O18         -5.0240    -2.2700     0.0380 o          1 FY1      -0.382000
     23 C11         -4.0500     2.1870     0.6600 ca         1 FY1      -0.097000
     24 C13         -5.9230     1.3300     1.9010 ca         1 FY1      -0.097000
     25 H1          -5.4020     3.4060     1.7860 ha         1 FY1       0.128000
     26 H2          -6.1940    -0.7980     1.8330 ha         1 FY1       0.149000
     27 H3          -0.1360    -4.0230     0.1640 h1         1 FY1       0.038700
     28 H4          -1.1760    -4.2990    -1.2470 h1         1 FY1       0.038700
     29 H5           0.3880    -5.1250    -1.1180 h1         1 FY1       0.038700
     30 H6          -0.1850     2.3880    -1.7650 h1         1 FY1       0.064700
     31 H7          -0.5940     0.7710    -2.2800 h1         1 FY1       0.064700
     32 H8           1.8750     2.7920    -0.9650 ha         1 FY1       0.129000
     33 H9           4.1450    -0.1830     1.1340 ha         1 FY1       0.146000
     34 H10          0.3110    -1.3570    -2.4210 h2         1 FY1       0.071200
     35 H11         -1.1980    -2.0680    -1.7720 h2         1 FY1       0.071200
     36 H12         -1.3770     1.8340     0.3720 hn         1 FY1       0.323500
     37 H13         -3.4760     3.0350     0.3080 ha         1 FY1       0.127000
     38 H14         -6.7800     1.4900     2.5400 ha         1 FY1       0.131000
     39 O20          0.0070    -1.2730    -0.3710 os         1 FY1      -0.378100
@<TRIPOS>BOND
     1     1     2 1   
     2     1    21 1   
     3     1    22 1   
     4     2     5 ar  
     5     2     8 ar  
     6     3     4 ar  
     7     3    14 ar  
     8     3    18 1   
     9     4    11 ar  
    10     4    39 1   
    11     5     6 1   
    12     5    23 ar  
    13     6    15 2   
    14     6    20 1   
    15     7    23 ar  
    16     7    24 ar  
    17     7    25 1   
    18     8    24 ar  
    19     8    26 1   
    20     9    16 1   
    21     9    27 1   
    22     9    28 1   
    23     9    29 1   
    24    10    11 1   
    25    10    20 1   
    26    10    30 1   
    27    10    31 1   
    28    11    12 ar  
    29    12    13 ar  
    30    12    32 1   
    31    13    14 ar  
    32    13    19 1   
    33    14    33 1   
    34    16    17 1   
    35    17    34 1   
    36    17    35 1   
    37    17    39 1   
    38    20    36 1   
    39    23    37 1   
    40    24    38 1   
@<TRIPOS>SUBSTRUCTURE
     1 FY1         1 TEMP              0 ****  ****    0 ROOT
