@<TRIPOS>MOLECULE
FY2
   23    23     1     0     0
SMALL
abcg2


@<TRIPOS>ATOM
      1 N          -25.9630   -19.7650   -14.9870 n8         1 FY2      -1.002200
      2 CA         -25.1850   -18.5560   -14.7800 c3         1 FY2       0.026500
      3 CB         -23.9490   -18.8580   -13.9230 c3         1 FY2      -0.011100
      4 CG         -24.3230   -19.4320   -12.5860 ca         1 FY2      -0.083300
      5 CD1        -24.2640   -20.7870   -12.3040 ca         1 FY2       0.175000
      6 CE1        -24.6520   -21.3030   -11.0800 ca         1 FY2       0.079000
      7 CZ         -25.1260   -20.4760   -10.0710 ca         1 FY2       0.091100
      8 OH         -25.4800   -21.0520    -8.9100 oh         1 FY2      -0.527100
      9 CE2        -25.1940   -19.1110   -10.3320 ca         1 FY2      -0.205000
     10 CD2        -24.7980   -18.6140   -11.5630 ca         1 FY2      -0.077000
     11 C          -24.7930   -17.8970   -16.1310 c          1 FY2       0.722000
     12 O          -23.8960   -17.0340   -16.0810 o          1 FY2      -0.726000
     13 F2         -23.8030   -21.6570   -13.2140 f          1 FY2      -0.152000
     14 F3         -24.5660   -22.6230   -10.8630 f          1 FY2      -0.168000
     15 H          -26.5840   -19.9210   -14.2040 hn         1 FY2       0.386000
     16 H1         -26.5440   -19.6270   -15.8030 hn         1 FY2       0.386000
     17 HA         -25.7620   -17.7820   -14.2420 h1         1 FY2      -0.006300
     18 HB1        -23.2910   -19.5380   -14.4660 hc         1 FY2       0.065700
     19 HB2        -23.3930   -17.9350   -13.7640 hc         1 FY2       0.065700
     20 HH         -25.7800   -20.3830    -8.2850 ho         1 FY2       0.457000
     21 HE2        -25.5520   -18.4360    -9.5640 ha         1 FY2       0.105000
     22 HD2        -24.8580   -17.5470   -11.7380 ha         1 FY2       0.124000
     23 O1         -25.4350   -18.2510   -17.1400 o          1 FY2      -0.726000
@<TRIPOS>BOND
     1     1     2 1   
     2     1    15 1   
     3     1    16 1   
     4     2     3 1   
     5     2    11 1   
     6     2    17 1   
     7     3     4 1   
     8     3    18 1   
     9     3    19 1   
    10     4     5 ar  
    11     4    10 ar  
    12     5     6 ar  
    13     5    13 1   
    14     6     7 ar  
    15     6    14 1   
    16     7     8 1   
    17     7     9 ar  
    18     8    20 1   
    19     9    10 ar  
    20     9    21 1   
    21    10    22 1   
    22    11    12 1   
    23    11    23 1   
@<TRIPOS>SUBSTRUCTURE
     1 FY2         1 TEMP              0 ****  ****    0 ROOT
