@<TRIPOS>MOLECULE
FY2
   23    23     1     0     0
SMALL
No Charge or Current Charge


@<TRIPOS>ATOM
      1 N          -26.0350   -19.7720   -15.0830 n8         1 FY2      -1.002200
      2 CA         -25.1600   -18.5630   -14.8620 c3         1 FY2       0.026500
      3 CB         -23.9500   -18.9190   -13.9500 c3         1 FY2      -0.011100
      4 CG         -24.3550   -19.4930   -12.5880 ca         1 FY2      -0.083300
      5 CD1        -24.0800   -20.8350   -12.2340 ca         1 FY2       0.175000
      6 CE1        -24.4580   -21.3320   -10.9710 ca         1 FY2       0.079000
      7 CZ         -25.1130   -20.4900   -10.0480 ca         1 FY2       0.091100
      8 OH         -25.4870   -20.9540    -8.8160 oh         1 FY2      -0.527100
      9 CE2        -25.3830   -19.1570   -10.3930 ca         1 FY2      -0.205000
     10 CD2        -25.0050   -18.6610   -11.6530 ca         1 FY2      -0.077000
     11 C          -24.7120   -17.7710   -16.1690 c          1 FY2       0.722000
     12 O          -23.5870   -17.9450   -16.6230 o          1 FY2      -0.726000
     13 F2         -23.4480   -21.6580   -13.1060 f          1 FY2      -0.152000
     14 F3         -24.1890   -22.6210   -10.6460 f          1 FY2      -0.168000
     15 H          -26.3560   -20.1220   -14.1730 hn         1 FY2       0.386000
     16 H1         -26.9000   -19.4760   -15.5510 hn         1 FY2       0.386000
     17 HA         -25.7820   -17.8600   -14.2930 h1         1 FY2      -0.006300
     18 HB1        -23.2860   -19.6050   -14.4890 hc         1 FY2       0.065700
     19 HB2        -23.3610   -18.0080   -13.7880 hc         1 FY2       0.065700
     20 HH         -25.9230   -20.2230    -8.3270 ho         1 FY2       0.457000
     21 HE2        -25.8850   -18.4970    -9.6890 ha         1 FY2       0.105000
     22 HD2        -25.2190   -17.6240   -11.9060 ha         1 FY2       0.124000
     23 O1         -25.5180   -16.9990   -16.6730 o          1 FY2      -0.726000
@<TRIPOS>BOND
     1     1     2 1   
     2     1    15 1   
     3     1    16 1   
     4     2     3 1   
     5     2    11 1   
     6     2    17 1   
     7     3     4 1   
     8     3    18 1   
     9     3    19 1   
    10     4     5 ar  
    11     4    10 ar  
    12     5     6 ar  
    13     5    13 1   
    14     6     7 ar  
    15     6    14 1   
    16     7     8 1   
    17     7     9 ar  
    18     8    20 1   
    19     9    10 ar  
    20     9    21 1   
    21    10    22 1   
    22    11    12 1   
    23    11    23 1   
@<TRIPOS>SUBSTRUCTURE
     1 FY2         1 TEMP              0 ****  ****    0 ROOT
