@<TRIPOS>MOLECULE
FY4
   44    46     1     0     0
SMALL
No Charge or Current Charge


@<TRIPOS>ATOM
      1 C1          -1.7000     0.4830    -0.3950 ca         1 FY4       0.151100
      2 C2          -2.8050     1.0160     0.3020 ca         1 FY4      -0.031900
      3 C3          -4.0670     0.4110     0.1830 ca         1 FY4      -0.041000
      4 C4          -4.2250    -0.7220    -0.6310 ca         1 FY4      -0.025900
      5 C5          -3.1290    -1.2510    -1.3330 ca         1 FY4      -0.055000
      6 C6          -1.8570    -0.6530    -1.2230 ca         1 FY4      -0.107300
      7 C7          -0.6830    -1.2260    -2.0120 c3         1 FY4       0.143300
      8 C9           1.7370    -1.6820    -1.5230 c          1 FY4       0.625700
      9 C10          2.7740    -1.9020    -0.4330 ca         1 FY4      -0.085600
     10 C11          4.0230    -1.2570    -0.5980 ca         1 FY4      -0.087000
     11 C12          5.0170    -1.3280     0.3890 ca         1 FY4      -0.067000
     12 C13          4.7830    -2.0490     1.5670 ca         1 FY4      -0.107000
     13 C14          3.5660    -2.7230     1.7450 ca         1 FY4      -0.051000
     14 C15          2.5600    -2.6740     0.7530 ca         1 FY4      -0.155200
     15 C21          0.3490     0.8070     0.8150 c          1 FY4       0.621700
     16 C25          1.7550     1.3340     0.6610 ca         1 FY4      -0.150600
     17 C27          4.0080     1.6100     1.5740 ca         1 FY4      -0.122500
     18 C26          2.6870     1.1510     1.7080 ca         1 FY4      -0.045000
     19 C28          4.4140     2.2460     0.3920 ca         1 FY4       0.144000
     20 C29          3.5000     2.4350    -0.6540 ca         1 FY4      -0.122500
     21 C30          2.1740     1.9830    -0.5240 ca         1 FY4      -0.045000
     22 O22          0.0250     0.0570     1.7270 o          1 FY4      -0.455000
     23 O20         -0.4600     1.0610    -0.2600 os         1 FY4      -0.339200
     24 Br1         -2.6160     2.5690     1.4140 br         1 FY4      -0.056100
     25 Br2         -5.9440    -1.5450    -0.7910 br         1 FY4      -0.072100
     26 N8           0.4150    -1.6380    -1.1370 ns         1 FY4      -0.484900
     27 O17          2.0570    -1.5130    -2.6920 o          1 FY4      -0.569100
     28 N16          1.3460    -3.5150     0.9620 no         1 FY4       0.692200
     29 O19          0.8290    -3.5130     2.0850 o          1 FY4      -0.394000
     30 O18          0.9970    -4.2640     0.0430 o          1 FY4      -0.394000
     31 Cl1          6.0740     2.8000     0.2200 cl         1 FY4      -0.184000
     32 H1          -4.9200     0.8200     0.7200 ha         1 FY4       0.149000
     33 H2          -3.2710    -2.1250    -1.9650 ha         1 FY4       0.140000
     34 H3          -1.0060    -2.0950    -2.6010 h1         1 FY4       0.072200
     35 H4          -0.3220    -0.4610    -2.7130 h1         1 FY4       0.072200
     36 H5           4.2160    -0.6660    -1.4910 ha         1 FY4       0.138000
     37 H6           5.9630    -0.8110     0.2460 ha         1 FY4       0.129000
     38 H7           5.5520    -2.1000     2.3350 ha         1 FY4       0.132000
     39 H8           3.4160    -3.3090     2.6520 ha         1 FY4       0.155000
     40 H9           4.7200     1.4610     2.3810 ha         1 FY4       0.139000
     41 H10          2.3920     0.6470     2.6270 ha         1 FY4       0.143000
     42 H11          3.8190     2.9280    -1.5690 ha         1 FY4       0.139000
     43 H12          1.4850     2.1360    -1.3530 ha         1 FY4       0.143000
     44 H13          0.2160    -1.7520    -0.1530 hn         1 FY4       0.320500
@<TRIPOS>BOND
     1     1     2 ar  
     2     1     6 ar  
     3     1    23 1   
     4     2     3 ar  
     5     2    24 1   
     6     3     4 ar  
     7     3    32 1   
     8     4     5 ar  
     9     4    25 1   
    10     5     6 ar  
    11     5    33 1   
    12     6     7 1   
    13     7    26 1   
    14     7    34 1   
    15     7    35 1   
    16     8     9 1   
    17     8    26 1   
    18     8    27 2   
    19     9    10 ar  
    20     9    14 ar  
    21    10    11 ar  
    22    10    36 1   
    23    11    12 ar  
    24    11    37 1   
    25    12    13 ar  
    26    12    38 1   
    27    13    14 ar  
    28    13    39 1   
    29    14    28 1   
    30    15    16 1   
    31    15    22 2   
    32    15    23 1   
    33    16    18 ar  
    34    16    21 ar  
    35    17    18 ar  
    36    17    19 ar  
    37    17    40 1   
    38    18    41 1   
    39    19    20 ar  
    40    19    31 1   
    41    20    21 ar  
    42    20    42 1   
    43    21    43 1   
    44    26    44 1   
    45    28    29 1   
    46    28    30 1   
@<TRIPOS>SUBSTRUCTURE
     1 FY4         1 TEMP              0 ****  ****    0 ROOT
