@<TRIPOS>MOLECULE
FY4
   44    46     1     0     0
SMALL
bcc


@<TRIPOS>ATOM
      1 C1          -1.6220     0.7650    -0.4130 ca         1 FY4       0.151100
      2 C2          -2.6970     1.4460     0.1380 ca         1 FY4      -0.031900
      3 C3          -3.9460     0.8470     0.2200 ca         1 FY4      -0.059000
      4 C4          -4.0900    -0.4460    -0.2550 ca         1 FY4      -0.025900
      5 C5          -3.0230    -1.1320    -0.8150 ca         1 FY4      -0.073000
      6 C6          -1.7770    -0.5270    -0.9040 ca         1 FY4      -0.107300
      7 C7          -0.6370    -1.2460    -1.5710 c3         1 FY4       0.143300
      8 C9           1.6910    -1.7550    -1.0470 c          1 FY4       0.692700
      9 C10          2.6280    -2.2670     0.0160 ca         1 FY4      -0.085600
     10 C11          3.4310    -1.3270     0.6490 ca         1 FY4      -0.105000
     11 C12          4.3490    -1.7050     1.6150 ca         1 FY4      -0.085000
     12 C13          4.4890    -3.0420     1.9580 ca         1 FY4      -0.125000
     13 C14          3.7130    -4.0000     1.3290 ca         1 FY4      -0.069000
     14 C15          2.7970    -3.6060     0.3640 ca         1 FY4      -0.155200
     15 C21          0.4150     1.3150     0.5550 c          1 FY4       0.670700
     16 C25          1.7550     1.8590     0.2660 ca         1 FY4      -0.150600
     17 C27          3.8610     2.6470     1.1370 ca         1 FY4      -0.140500
     18 C26          2.5770     2.1770     1.3460 ca         1 FY4      -0.063000
     19 C28          4.3230     2.7840    -0.1650 ca         1 FY4       0.052400
     20 C29          3.5230     2.4660    -1.2530 ca         1 FY4      -0.140500
     21 C30          2.2350     2.0070    -1.0340 ca         1 FY4      -0.063000
     22 O22          0.0590     0.8830     1.6150 o          1 FY4      -0.504000
     23 O20         -0.3980     1.3690    -0.5230 os         1 FY4      -0.339200
     24 BR1         -2.4670     3.2000     0.7610 br         1 FY4      -0.056100
     25 BR2         -5.7720    -1.2830    -0.1440 br         1 FY4      -0.072100
     26 N8           0.4220    -1.5700    -0.6370 ns         1 FY4      -0.551900
     27 O17          2.1160    -1.4400    -2.1420 o          1 FY4      -0.569100
     28 N16          2.0170    -4.6400    -0.3010 no         1 FY4       0.312200
     29 O19          2.1250    -5.7760     0.0900 o          1 FY4      -0.204000
     30 O18          1.3040    -4.3070    -1.2190 o          1 FY4      -0.204000
     31 CL1          5.9280     3.3550    -0.4360 cl         1 FY4      -0.092400
     32 H1          -4.7840     1.3830     0.6460 ha         1 FY4       0.167000
     33 H2          -3.1500    -2.1370    -1.1960 ha         1 FY4       0.158000
     34 H3          -1.0200    -2.1540    -2.0440 h1         1 FY4       0.072200
     35 H4          -0.2180    -0.6280    -2.3640 h1         1 FY4       0.072200
     36 H5           3.3300    -0.2830     0.3860 ha         1 FY4       0.156000
     37 H6           4.9600    -0.9550     2.1000 ha         1 FY4       0.147000
     38 H7           5.2060    -3.3440     2.7080 ha         1 FY4       0.150000
     39 H8           3.8310    -5.0420     1.5860 ha         1 FY4       0.173000
     40 H9           4.4960     2.8920     1.9770 ha         1 FY4       0.157000
     41 H10          2.2170     2.0580     2.3590 ha         1 FY4       0.161000
     42 H11          3.8960     2.5750    -2.2610 ha         1 FY4       0.157000
     43 H12          1.6260     1.7500    -1.8890 ha         1 FY4       0.161000
     44 H13          0.1460    -1.9870     0.2400 hn         1 FY4       0.320500
@<TRIPOS>BOND
     1     1     2 ar  
     2     1     6 ar  
     3     1    23 1   
     4     2     3 ar  
     5     2    24 1   
     6     3     4 ar  
     7     3    32 1   
     8     4     5 ar  
     9     4    25 1   
    10     5     6 ar  
    11     5    33 1   
    12     6     7 1   
    13     7    26 1   
    14     7    34 1   
    15     7    35 1   
    16     8     9 1   
    17     8    26 1   
    18     8    27 2   
    19     9    10 ar  
    20     9    14 ar  
    21    10    11 ar  
    22    10    36 1   
    23    11    12 ar  
    24    11    37 1   
    25    12    13 ar  
    26    12    38 1   
    27    13    14 ar  
    28    13    39 1   
    29    14    28 1   
    30    15    16 1   
    31    15    22 2   
    32    15    23 1   
    33    16    18 ar  
    34    16    21 ar  
    35    17    18 ar  
    36    17    19 ar  
    37    17    40 1   
    38    18    41 1   
    39    19    20 ar  
    40    19    31 1   
    41    20    21 ar  
    42    20    42 1   
    43    21    43 1   
    44    26    44 1   
    45    28    29 1   
    46    28    30 1   
@<TRIPOS>SUBSTRUCTURE
     1 FY4         1 TEMP              0 ****  ****    0 ROOT
