@<TRIPOS>MOLECULE
FY5
   45    48     1     0     0
SMALL
No Charge or Current Charge


@<TRIPOS>ATOM
      1 C10         -5.5370     0.3990     0.5500 c          1 FY5       0.578100
      2 C13         -0.0110    -2.0980    -0.8490 c6         1 FY5      -0.029100
      3 C15          0.2400     0.4620    -0.5020 ca         1 FY5      -0.114300
      4 C17          2.4690     1.4680    -0.4340 ca         1 FY5      -0.132000
      5 C02         -4.1920     0.4940    -0.2130 c5         1 FY5      -0.147000
      6 C03         -3.4960     1.9070    -0.1570 c6         1 FY5      -0.054400
      7 C04         -1.9460     1.8560     0.0800 c6         1 FY5      -0.067400
      8 C05         -1.2960     0.5550    -0.4800 c6         1 FY5      -0.001400
      9 C06         -1.8700    -0.7160     0.2240 c6         1 FY5      -0.046700
     10 C07         -3.3660    -0.5170     0.6380 c5         1 FY5      -0.051700
     11 C08         -4.3060    -1.7530     0.8130 c5         1 FY5      -0.068400
     12 C09         -5.7290    -1.1040     0.8290 c5         1 FY5      -0.192400
     13 C12         -1.5480    -1.9290    -0.6820 c6         1 FY5      -0.063400
     14 C14          0.8320    -0.8110    -0.7190 ca         1 FY5      -0.072300
     15 C16          1.0720     1.5970    -0.3670 ca         1 FY5      -0.101000
     16 C18          3.0510     0.2070    -0.6280 ca         1 FY5       0.194100
     17 C19          2.2350    -0.9240    -0.7840 ca         1 FY5      -0.131000
     18 O11         -6.1580     1.3090     1.0860 o          1 FY5      -0.528100
     19 O20          4.4110     0.0860    -0.7310 os         1 FY5      -0.484800
     20 S21          5.2760    -0.1370     0.6500 s6         1 FY5       1.490300
     21 H1           0.3400    -2.8070    -0.0860 hc         1 FY5       0.045700
     22 H2           0.1970    -2.5800    -1.8140 hc         1 FY5       0.045700
     23 H3           3.1020     2.3460    -0.3370 ha         1 FY5       0.134000
     24 H7          -3.7070     2.4620    -1.0820 hc         1 FY5       0.043700
     25 H8          -3.9320     2.5170     0.6450 hc         1 FY5       0.043700
     26 H9          -1.5080     2.7450    -0.3920 hc         1 FY5       0.045200
     27 H10         -1.7290     1.9370     1.1540 hc         1 FY5       0.045200
     28 H11         -1.5750     0.5270    -1.5400 hc         1 FY5       0.044700
     29 H12         -1.3150    -0.8640     1.1630 hc         1 FY5       0.061700
     30 H13         -3.2630    -0.0750     1.6400 hc         1 FY5       0.046700
     31 H14         -4.2200    -2.4640    -0.0160 hc         1 FY5       0.048700
     32 H15         -4.0880    -2.3060     1.7350 hc         1 FY5       0.048700
     33 H16         -6.2930    -1.2550     1.7560 hc         1 FY5       0.065700
     34 H17         -6.3060    -1.5250    -0.0020 hc         1 FY5       0.065700
     35 H18         -2.0200    -1.8000    -1.6660 hc         1 FY5       0.031700
     36 H19         -1.9580    -2.8550    -0.2590 hc         1 FY5       0.031700
     37 H20          0.6550     2.5880    -0.2160 ha         1 FY5       0.095000
     38 H21          2.6950    -1.8940    -0.9490 ha         1 FY5       0.128000
     39 C01         -4.4340     0.0830    -1.7060 c3         1 FY5      -0.078100
     40 H4          -5.1800     0.7400    -2.1690 hc         1 FY5       0.038700
     41 O22          4.6990    -1.3470     1.2560 o          1 FY5      -0.695200
     42 O23          6.6590    -0.3010     0.1770 o          1 FY5      -0.695200
     43 O24          5.0480     1.0910     1.4280 o          1 FY5      -0.695200
     44 H5          -3.5330     0.1500    -2.3200 hc         1 FY5       0.038700
     45 H6          -4.8080    -0.9420    -1.8080 hc         1 FY5       0.038700
@<TRIPOS>BOND
     1     1     5 1   
     2     1    12 1   
     3     1    18 2   
     4     2    13 1   
     5     2    14 1   
     6     2    21 1   
     7     2    22 1   
     8     3     8 1   
     9     3    14 ar  
    10     3    15 ar  
    11     4    15 ar  
    12     4    16 ar  
    13     4    23 1   
    14     5     6 1   
    15     5    10 1   
    16     5    39 1   
    17     6     7 1   
    18     6    24 1   
    19     6    25 1   
    20     7     8 1   
    21     7    26 1   
    22     7    27 1   
    23     8     9 1   
    24     8    28 1   
    25     9    10 1   
    26     9    13 1   
    27     9    29 1   
    28    10    11 1   
    29    10    30 1   
    30    11    12 1   
    31    11    31 1   
    32    11    32 1   
    33    12    33 1   
    34    12    34 1   
    35    13    35 1   
    36    13    36 1   
    37    14    17 ar  
    38    15    37 1   
    39    16    17 ar  
    40    16    19 1   
    41    17    38 1   
    42    19    20 1   
    43    20    41 1   
    44    20    42 1   
    45    20    43 1   
    46    39    40 1   
    47    39    44 1   
    48    39    45 1   
@<TRIPOS>SUBSTRUCTURE
     1 FY5         1 TEMP              0 ****  ****    0 ROOT
