@<TRIPOS>MOLECULE
FY5
   45    48     1     0     0
SMALL
bcc


@<TRIPOS>ATOM
      1 C10         -5.4960     0.3630     0.3750 c          1 FY5       0.578100
      2 C13         -0.0280    -2.0900    -0.7700 c6         1 FY5      -0.029100
      3 C15          0.1890     0.4420    -0.4710 ca         1 FY5      -0.114300
      4 C17          2.3950     1.4580    -0.4350 ca         1 FY5      -0.150000
      5 C02         -4.1090     0.4960    -0.2280 c5         1 FY5      -0.147000
      6 C03         -3.4480     1.8750    -0.0960 c6         1 FY5      -0.054400
      7 C04         -1.9340     1.7770     0.1980 c6         1 FY5      -0.067400
      8 C05         -1.3190     0.5350    -0.4420 c6         1 FY5      -0.001400
      9 C06         -1.8840    -0.7480     0.1950 c6         1 FY5      -0.046700
     10 C07         -3.3420    -0.5390     0.6030 c5         1 FY5      -0.051700
     11 C08         -4.2960    -1.7270     0.7120 c5         1 FY5      -0.068400
     12 C09         -5.6510    -1.0440     0.9330 c5         1 FY5      -0.192400
     13 C12         -1.5470    -1.9090    -0.7280 c6         1 FY5      -0.063400
     14 C14          0.7800    -0.8140    -0.6720 ca         1 FY5      -0.072300
     15 C16          1.0150     1.5580    -0.3540 ca         1 FY5      -0.119000
     16 C18          2.9690     0.2130    -0.6440 ca         1 FY5       0.194100
     17 C19          2.1670    -0.9110    -0.7490 ca         1 FY5      -0.149000
     18 O11         -6.3440     1.2230     0.4040 o          1 FY5      -0.528100
     19 O20          4.3280     0.0940    -0.7910 os         1 FY5      -0.484800
     20 S21          5.2360    -0.1130     0.5980 s6         1 FY5       1.490300
     21 H1           0.2720    -2.7330     0.0630 hc         1 FY5       0.045700
     22 H2           0.2640    -2.6310    -1.6740 hc         1 FY5       0.045700
     23 H3           3.0160     2.3400    -0.3510 ha         1 FY5       0.152000
     24 H7          -3.6000     2.4460    -1.0150 hc         1 FY5       0.043700
     25 H8          -3.9240     2.4530     0.7000 hc         1 FY5       0.043700
     26 H9          -1.4620     2.6880    -0.1730 hc         1 FY5       0.045200
     27 H10         -1.7520     1.7590     1.2760 hc         1 FY5       0.045200
     28 H11         -1.6280     0.5390    -1.4940 hc         1 FY5       0.044700
     29 H12         -1.3310    -0.9170     1.1290 hc         1 FY5       0.061700
     30 H13         -3.3000    -0.1040     1.6120 hc         1 FY5       0.046700
     31 H14         -4.3000    -2.3220    -0.2030 hc         1 FY5       0.048700
     32 H15         -4.0360    -2.4000     1.5290 hc         1 FY5       0.048700
     33 H16         -5.8820    -0.9590     1.9980 hc         1 FY5       0.065700
     34 H17         -6.4970    -1.5540     0.4690 hc         1 FY5       0.065700
     35 H18         -1.9380    -1.7190    -1.7320 hc         1 FY5       0.031700
     36 H19         -2.0050    -2.8400    -0.3870 hc         1 FY5       0.031700
     37 H20          0.5830     2.5370    -0.1950 ha         1 FY5       0.113000
     38 H21          2.6270    -1.8800    -0.9080 ha         1 FY5       0.146000
     39 C01         -4.3110     0.1020    -1.7040 c3         1 FY5      -0.078100
     40 H4          -5.0110     0.7940    -2.1780 hc         1 FY5       0.038700
     41 O22          4.7090    -1.3270     1.2180 o          1 FY5      -0.695200
     42 O23          6.5660    -0.2380     0.0130 o          1 FY5      -0.695200
     43 O24          5.0150     1.1010     1.3820 o          1 FY5      -0.695200
     44 H5          -3.3840     0.1530    -2.2720 hc         1 FY5       0.038700
     45 H6          -4.7130    -0.9050    -1.8270 hc         1 FY5       0.038700
@<TRIPOS>BOND
     1     1     5 1   
     2     1    12 1   
     3     1    18 2   
     4     2    13 1   
     5     2    14 1   
     6     2    21 1   
     7     2    22 1   
     8     3     8 1   
     9     3    14 ar  
    10     3    15 ar  
    11     4    15 ar  
    12     4    16 ar  
    13     4    23 1   
    14     5     6 1   
    15     5    10 1   
    16     5    39 1   
    17     6     7 1   
    18     6    24 1   
    19     6    25 1   
    20     7     8 1   
    21     7    26 1   
    22     7    27 1   
    23     8     9 1   
    24     8    28 1   
    25     9    10 1   
    26     9    13 1   
    27     9    29 1   
    28    10    11 1   
    29    10    30 1   
    30    11    12 1   
    31    11    31 1   
    32    11    32 1   
    33    12    33 1   
    34    12    34 1   
    35    13    35 1   
    36    13    36 1   
    37    14    17 ar  
    38    15    37 1   
    39    16    17 ar  
    40    16    19 1   
    41    17    38 1   
    42    19    20 1   
    43    20    41 1   
    44    20    42 1   
    45    20    43 1   
    46    39    40 1   
    47    39    44 1   
    48    39    45 1   
@<TRIPOS>SUBSTRUCTURE
     1 FY5         1 TEMP              0 ****  ****    0 ROOT
