@<TRIPOS>MOLECULE
FY6
   35    36     1     0     0
SMALL
abcg2


@<TRIPOS>ATOM
      1 CL1         -1.4270    14.3990    13.5950 cl         1 FY6      -0.202000
      2 C1          -1.4450    13.9860    11.9100 ca         1 FY6       0.118000
      3 C2          -2.1040    14.8120    11.0110 ca         1 FY6      -0.098500
      4 C3          -2.1110    14.4740     9.6680 ca         1 FY6      -0.103500
      5 C4          -1.4720    13.3260     9.1980 ca         1 FY6      -0.074300
      6 C5          -0.8190    12.5200    10.1260 ca         1 FY6      -0.103500
      7 C6          -0.8000    12.8420    11.4780 ca         1 FY6      -0.098500
      8 C7          -1.5290    13.0080     7.7260 c3         1 FY6      -0.029100
      9 C8          -0.6210    11.8800     7.2600 c3         1 FY6      -0.097400
     10 C9          -0.7080    11.7110     5.7480 c3         1 FY6       0.069600
     11 N10          0.1270    10.6290     5.2630 na         1 FY6      -0.167500
     12 C11         -0.2510     9.4040     4.8190 cc         1 FY6       0.398800
     13 N12          0.7870     8.6700     4.5040 nd         1 FY6      -0.636000
     14 C13          1.8810     9.4470     4.7520 cd         1 FY6       0.229900
     15 C14          1.4950    10.6650     5.2260 cc         1 FY6      -0.233000
     16 C16         -1.6790     8.9500     4.7420 c3         1 FY6       0.159000
     17 C17         -2.1710     8.4480     6.0970 c3         1 FY6      -0.134100
     18 O18         -1.7320     7.9460     3.7590 oh         1 FY6      -0.623000
     19 H1          -2.6040    15.7090    11.3510 ha         1 FY6       0.130000
     20 H2          -2.6260    15.1240     8.9700 ha         1 FY6       0.116500
     21 H3          -0.3090    11.6190     9.8100 ha         1 FY6       0.116500
     22 H4          -0.2840    12.2010    12.1800 ha         1 FY6       0.130000
     23 H5          -1.2870    13.9180     7.1680 hc         1 FY6       0.050700
     24 H6          -2.5640    12.7690     7.4620 hc         1 FY6       0.050700
     25 H7          -0.8980    10.9390     7.7430 hc         1 FY6       0.058200
     26 H8           0.4140    12.0890     7.5430 hc         1 FY6       0.058200
     27 H9          -0.4010    12.6310     5.2480 h1         1 FY6       0.059200
     28 H10         -1.7380    11.5200     5.4470 h1         1 FY6       0.059200
     29 H11          2.8850     9.0930     4.5730 h4         1 FY6       0.038100
     30 H12          2.0520    11.5360     5.5290 h4         1 FY6       0.155000
     31 H13         -2.3060     9.8030     4.4470 h1         1 FY6       0.024700
     32 H14         -2.1240     9.2310     6.8540 hc         1 FY6       0.046700
     33 H15         -3.2120     8.1240     6.0330 hc         1 FY6       0.046700
     34 H16         -1.5660     7.6080     6.4390 hc         1 FY6       0.046700
     35 H17         -2.6360     7.6190     3.7240 ho         1 FY6       0.441000
@<TRIPOS>BOND
     1     1     2 1   
     2     2     3 ar  
     3     2     7 ar  
     4     3     4 ar  
     5     3    19 1   
     6     4     5 ar  
     7     4    20 1   
     8     5     6 ar  
     9     5     8 1   
    10     6     7 ar  
    11     6    21 1   
    12     7    22 1   
    13     8     9 1   
    14     8    23 1   
    15     8    24 1   
    16     9    10 1   
    17     9    25 1   
    18     9    26 1   
    19    10    11 1   
    20    10    27 1   
    21    10    28 1   
    22    11    12 1   
    23    11    15 1   
    24    12    13 2   
    25    12    16 1   
    26    13    14 1   
    27    14    15 2   
    28    14    29 1   
    29    15    30 1   
    30    16    17 1   
    31    16    18 1   
    32    16    31 1   
    33    17    32 1   
    34    17    33 1   
    35    17    34 1   
    36    18    35 1   
@<TRIPOS>SUBSTRUCTURE
     1 FY6         1 TEMP              0 ****  ****    0 ROOT
