@<TRIPOS>MOLECULE
FY6
   35    36     1     0     0
SMALL
No Charge or Current Charge


@<TRIPOS>ATOM
      1 Cl1         -1.5630    14.2290    13.5700 cl         1 FY6      -0.202000
      2 C1          -1.6550    13.9290    11.8390 ca         1 FY6       0.118000
      3 C2          -0.9020    14.7140    10.9500 ca         1 FY6      -0.098500
      4 C3          -0.9750    14.4750     9.5660 ca         1 FY6      -0.103500
      5 C4          -1.8020    13.4500     9.0660 ca         1 FY6      -0.074300
      6 C5          -2.5530    12.6640     9.9630 ca         1 FY6      -0.103500
      7 C6          -2.4790    12.9050    11.3470 ca         1 FY6      -0.098500
      8 C7          -1.8760    13.1850     7.5690 c3         1 FY6      -0.029100
      9 C8          -0.8270    12.1500     7.1150 c3         1 FY6      -0.097400
     10 C9          -0.8840    11.8570     5.6010 c3         1 FY6       0.069600
     11 N10          0.1110    10.8590     5.1770 na         1 FY6      -0.167500
     12 C11         -0.0500     9.4820     5.1420 cc         1 FY6       0.398800
     13 N12          1.0590     8.9010     4.6930 nd         1 FY6      -0.636000
     14 C13          1.9510     9.9210     4.4440 cd         1 FY6       0.229900
     15 C14          1.3880    11.1350     4.7370 cc         1 FY6      -0.233000
     16 C16         -1.3330     8.7490     5.5570 c3         1 FY6       0.159000
     17 C17         -1.0800     7.3560     6.1710 c3         1 FY6      -0.134100
     18 O18         -2.2510     8.6000     4.4580 oh         1 FY6      -0.623000
     19 H1          -0.2630    15.5060    11.3330 ha         1 FY6       0.130000
     20 H2          -0.3870    15.0850     8.8830 ha         1 FY6       0.116500
     21 H3          -3.1920    11.8670     9.5900 ha         1 FY6       0.116500
     22 H4          -3.0600    12.2970    12.0380 ha         1 FY6       0.130000
     23 H5          -1.7270    14.1190     7.0130 hc         1 FY6       0.050700
     24 H6          -2.8780    12.8260     7.2990 hc         1 FY6       0.050700
     25 H7          -0.9780    11.2170     7.6720 hc         1 FY6       0.058200
     26 H8           0.1750    12.5160     7.3710 hc         1 FY6       0.058200
     27 H9          -0.7040    12.7870     5.0450 h1         1 FY6       0.059200
     28 H10         -1.8870    11.5010     5.3310 h1         1 FY6       0.059200
     29 H11          2.9480     9.7260     4.0670 h4         1 FY6       0.038100
     30 H12          1.7920    12.1370     4.6630 h4         1 FY6       0.155000
     31 H13         -1.8140     9.3500     6.3390 h1         1 FY6       0.024700
     32 H14         -0.3980     7.4350     7.0260 hc         1 FY6       0.046700
     33 H15         -2.0170     6.9100     6.5280 hc         1 FY6       0.046700
     34 H16         -0.6320     6.6770     5.4360 hc         1 FY6       0.046700
     35 H17         -3.0420     8.1320     4.8030 ho         1 FY6       0.441000
@<TRIPOS>BOND
     1     1     2 1   
     2     2     3 ar  
     3     2     7 ar  
     4     3     4 ar  
     5     3    19 1   
     6     4     5 ar  
     7     4    20 1   
     8     5     6 ar  
     9     5     8 1   
    10     6     7 ar  
    11     6    21 1   
    12     7    22 1   
    13     8     9 1   
    14     8    23 1   
    15     8    24 1   
    16     9    10 1   
    17     9    25 1   
    18     9    26 1   
    19    10    11 1   
    20    10    27 1   
    21    10    28 1   
    22    11    12 1   
    23    11    15 1   
    24    12    13 2   
    25    12    16 1   
    26    13    14 1   
    27    14    15 2   
    28    14    29 1   
    29    15    30 1   
    30    16    17 1   
    31    16    18 1   
    32    16    31 1   
    33    17    32 1   
    34    17    33 1   
    35    17    34 1   
    36    18    35 1   
@<TRIPOS>SUBSTRUCTURE
     1 FY6         1 TEMP              0 ****  ****    0 ROOT
