@<TRIPOS>MOLECULE
FY7
   45    47     1     0     0
SMALL
No Charge or Current Charge


@<TRIPOS>ATOM
      1 C29         -1.5570     3.8510    -1.4060 ca         1 FY7      -0.113000
      2 C28         -2.1050     4.6390    -0.3860 ca         1 FY7      -0.084000
      3 C27         -1.6960     4.4440     0.9420 ca         1 FY7      -0.088000
      4 C26         -0.7400     3.4590     1.2660 ca         1 FY7       0.066000
      5 C25         -0.1810     2.6530     0.2350 ca         1 FY7      -0.091600
      6 C21          0.8160     1.5470     0.5180 c          1 FY7       0.619700
      7 O22          1.6470     1.5780     1.4160 o          1 FY7      -0.428000
      8 C2           2.6410    -0.8050    -0.9850 ca         1 FY7      -0.034900
      9 C1           1.4410    -0.6470    -0.2630 ca         1 FY7       0.151100
     10 C3           3.3630    -2.0060    -0.8970 ca         1 FY7      -0.044000
     11 N3          -0.1250     3.1730     3.7870 n1         1 FY7      -0.422000
     12 C19         -0.3970     3.2920     2.6570 cg         1 FY7       0.323000
     13 C30         -0.6030     2.8680    -1.1000 ca         1 FY7      -0.068000
     14 O20          0.7390     0.5260    -0.3880 os         1 FY7      -0.359200
     15 C6           0.9450    -1.7020     0.5430 ca         1 FY7      -0.105300
     16 C5           1.6820    -2.9020     0.6220 ca         1 FY7      -0.058000
     17 C4           2.8820    -3.0510    -0.0930 ca         1 FY7      -0.024900
     18 Br1          3.8650    -4.6880     0.0280 br         1 FY7      -0.072100
     19 C7          -0.3490    -1.5700     1.3490 c3         1 FY7       0.143300
     20 N8          -1.4630    -1.0560     0.5450 ns         1 FY7      -0.485900
     21 C9          -2.2400     0.0290     0.8930 c          1 FY7       0.630700
     22 O17         -2.1560     0.5210     2.0090 o          1 FY7      -0.579100
     23 C10         -3.1000     0.6300    -0.2120 ca         1 FY7      -0.092600
     24 C11         -2.8040     0.3500    -1.5720 ca         1 FY7      -0.097000
     25 C12         -3.5260     0.9580    -2.6120 ca         1 FY7      -0.079000
     26 C13         -4.5550     1.8620    -2.3220 ca         1 FY7      -0.103000
     27 C14         -4.8720     2.1540    -0.9880 ca         1 FY7      -0.056000
     28 C15         -4.1610     1.5430     0.0690 ca         1 FY7      -0.133200
     29 N16         -4.5820     1.8630     1.4610 no         1 FY7       0.695200
     30 O18         -5.0920     0.9470     2.1200 o          1 FY7      -0.385500
     31 O19         -4.6650     3.0590     1.7700 o          1 FY7      -0.385500
     32 H1          -1.8740     3.9970    -2.4360 ha         1 FY7       0.119000
     33 H2          -2.8480     5.3970    -0.6220 ha         1 FY7       0.123000
     34 H3          -2.1350     5.0580     1.7270 ha         1 FY7       0.134000
     35 H4           4.2910    -2.1270    -1.4520 ha         1 FY7       0.149000
     36 H5          -0.1950     2.2690    -1.9120 ha         1 FY7       0.130000
     37 H6           1.3260    -3.7240     1.2410 ha         1 FY7       0.137000
     38 H7          -0.6410    -2.5480     1.7540 h1         1 FY7       0.080700
     39 H8          -0.1600    -0.9070     2.2040 h1         1 FY7       0.080700
     40 H9          -1.5920    -1.4320    -0.3840 hn         1 FY7       0.322500
     41 H10         -1.9870    -0.3120    -1.8470 ha         1 FY7       0.137000
     42 H11         -3.2760     0.7360    -3.6480 ha         1 FY7       0.127000
     43 H12         -5.1100     2.3350    -3.1300 ha         1 FY7       0.131000
     44 H13         -5.6820     2.8500    -0.7730 ha         1 FY7       0.152000
     45 Br2          3.3060     0.6110    -2.0950 br         1 FY7      -0.063100
@<TRIPOS>BOND
     1     1     2 ar  
     2     1    13 ar  
     3     1    32 1   
     4     2     3 ar  
     5     2    33 1   
     6     3     4 ar  
     7     3    34 1   
     8     4     5 ar  
     9     4    12 1   
    10     5     6 1   
    11     5    13 ar  
    12     6     7 2   
    13     6    14 1   
    14     8     9 ar  
    15     8    10 ar  
    16     8    45 1   
    17     9    14 1   
    18     9    15 ar  
    19    10    17 ar  
    20    10    35 1   
    21    11    12 3   
    22    13    36 1   
    23    15    16 ar  
    24    15    19 1   
    25    16    17 ar  
    26    16    37 1   
    27    17    18 1   
    28    19    20 1   
    29    19    38 1   
    30    19    39 1   
    31    20    21 1   
    32    20    40 1   
    33    21    22 2   
    34    21    23 1   
    35    23    24 ar  
    36    23    28 ar  
    37    24    25 ar  
    38    24    41 1   
    39    25    26 ar  
    40    25    42 1   
    41    26    27 ar  
    42    26    43 1   
    43    27    28 ar  
    44    27    44 1   
    45    28    29 1   
    46    29    30 1   
    47    29    31 1   
@<TRIPOS>SUBSTRUCTURE
     1 FY7         1 TEMP              0 ****  ****    0 ROOT
