@<TRIPOS>MOLECULE
FY7
   45    47     1     0     0
SMALL
bcc


@<TRIPOS>ATOM
      1 C29         -0.8580     4.2790    -1.4280 ca         1 FY7      -0.131000
      2 C28         -1.1570     5.2040    -0.4410 ca         1 FY7      -0.102000
      3 C27         -0.8270     4.9400     0.8800 ca         1 FY7      -0.106000
      4 C26         -0.1870     3.7500     1.2100 ca         1 FY7       0.066000
      5 C25          0.1130     2.8100     0.2160 ca         1 FY7      -0.091600
      6 C21          0.8180     1.5630     0.5810 c          1 FY7       0.668700
      7 O22          1.5190     1.4180     1.5420 o          1 FY7      -0.477000
      8 C2           2.4680    -0.7690    -0.8610 ca         1 FY7      -0.034900
      9 C1           1.2720    -0.5980    -0.1790 ca         1 FY7       0.151100
     10 C3           3.1570    -1.9710    -0.7980 ca         1 FY7      -0.062000
     11 N3           0.2610     3.4120     3.7270 n1         1 FY7      -0.332800
     12 C19          0.0870     3.5170     2.5930 cg         1 FY7       0.233800
     13 C30         -0.2300     3.0850    -1.1000 ca         1 FY7      -0.086000
     14 O20          0.5920     0.5850    -0.3170 os         1 FY7      -0.359200
     15 C6           0.7400    -1.6280     0.5900 ca         1 FY7      -0.105300
     16 C5           1.4250    -2.8340     0.6500 ca         1 FY7      -0.076000
     17 C4           2.6210    -2.9940    -0.0340 ca         1 FY7      -0.024900
     18 BR1          3.5310    -4.6380     0.0650 br         1 FY7      -0.072100
     19 C7          -0.5440    -1.4640     1.3670 c3         1 FY7       0.143300
     20 N8          -1.6460    -1.0090     0.5570 ns         1 FY7      -0.552900
     21 C9          -2.2130     0.1960     0.7040 c          1 FY7       0.697700
     22 O17         -1.8870     1.0180     1.5440 o          1 FY7      -0.579100
     23 C10         -3.2500     0.5340    -0.3270 ca         1 FY7      -0.092600
     24 C11         -2.8570     0.6500    -1.6530 ca         1 FY7      -0.115000
     25 C12         -3.7410     1.1140    -2.6180 ca         1 FY7      -0.097000
     26 C13         -5.0320     1.4750    -2.2660 ca         1 FY7      -0.121000
     27 C14         -5.4460     1.3700    -0.9470 ca         1 FY7      -0.074000
     28 C15         -4.5530     0.8970    -0.0010 ca         1 FY7      -0.133200
     29 N16         -5.0280     0.7270     1.3630 no         1 FY7       0.315200
     30 O18         -4.5440    -0.1680     2.0150 o          1 FY7      -0.195500
     31 O19         -5.8900     1.4730     1.7590 o          1 FY7      -0.195500
     32 H1          -1.1130     4.4830    -2.4580 ha         1 FY7       0.137000
     33 H2          -1.6510     6.1320    -0.6940 ha         1 FY7       0.141000
     34 H3          -1.0690     5.6520     1.6560 ha         1 FY7       0.152000
     35 H4           4.0870    -2.0990    -1.3340 ha         1 FY7       0.167000
     36 H5           0.0000     2.3780    -1.8850 ha         1 FY7       0.148000
     37 H6           1.0140    -3.6430     1.2400 ha         1 FY7       0.155000
     38 H7          -0.8040    -2.4200     1.8230 h1         1 FY7       0.080700
     39 H8          -0.4020    -0.7550     2.1830 h1         1 FY7       0.080700
     40 H9          -2.0180    -1.6440    -0.1320 hn         1 FY7       0.322500
     41 H10         -1.8460     0.3900    -1.9360 ha         1 FY7       0.155000
     42 H11         -3.4150     1.1950    -3.6460 ha         1 FY7       0.145000
     43 H12         -5.7240     1.8310    -3.0160 ha         1 FY7       0.149000
     44 H13         -6.4570     1.6320    -0.6710 ha         1 FY7       0.170000
     45 BR2          3.1580     0.6440    -1.8860 br         1 FY7      -0.063100
@<TRIPOS>BOND
     1     1     2 ar  
     2     1    13 ar  
     3     1    32 1   
     4     2     3 ar  
     5     2    33 1   
     6     3     4 ar  
     7     3    34 1   
     8     4     5 ar  
     9     4    12 1   
    10     5     6 1   
    11     5    13 ar  
    12     6     7 2   
    13     6    14 1   
    14     8     9 ar  
    15     8    10 ar  
    16     8    45 1   
    17     9    14 1   
    18     9    15 ar  
    19    10    17 ar  
    20    10    35 1   
    21    11    12 3   
    22    13    36 1   
    23    15    16 ar  
    24    15    19 1   
    25    16    17 ar  
    26    16    37 1   
    27    17    18 1   
    28    19    20 1   
    29    19    38 1   
    30    19    39 1   
    31    20    21 1   
    32    20    40 1   
    33    21    22 2   
    34    21    23 1   
    35    23    24 ar  
    36    23    28 ar  
    37    24    25 ar  
    38    24    41 1   
    39    25    26 ar  
    40    25    42 1   
    41    26    27 ar  
    42    26    43 1   
    43    27    28 ar  
    44    27    44 1   
    45    28    29 1   
    46    29    30 1   
    47    29    31 1   
@<TRIPOS>SUBSTRUCTURE
     1 FY7         1 TEMP              0 ****  ****    0 ROOT
