@<TRIPOS>MOLECULE
FY8
   32    33     1     0     0
SMALL
abcg2


@<TRIPOS>ATOM
      1 CL           4.2950     1.9660     0.1320 cl         1 FY8      -0.198000
      2 C1          -1.0580     0.4590    -0.1760 c          1 FY8       0.607100
      3 O1          -0.7290     1.5970     0.1090 o          1 FY8      -0.581100
      4 C2           1.2150    -0.5440    -0.2300 ca         1 FY8      -0.035000
      5 N2          -5.3490     0.3060     0.4020 n7         1 FY8      -0.845400
      6 O2           1.0670    -2.8820    -0.3150 oh         1 FY8      -0.553100
      7 C3           1.9830     0.6100    -0.1280 ca         1 FY8      -0.099000
      8 C4           1.8580    -1.7960    -0.2080 ca         1 FY8       0.085100
      9 C5          -2.5080     0.0330    -0.2900 c6         1 FY8      -0.140700
     10 C6           3.2350    -1.8680    -0.0830 ca         1 FY8      -0.171000
     11 C7           3.3610     0.5080     0.0010 ca         1 FY8       0.112000
     12 C8           4.0010    -0.7150     0.0250 ca         1 FY8      -0.091000
     13 C9          -4.8460     0.6890    -0.9070 c6         1 FY8       0.149300
     14 C10         -4.5190    -0.7140     1.0200 c6         1 FY8       0.149300
     15 C11         -3.3810     1.1220    -0.9090 c6         1 FY8      -0.107400
     16 C12         -3.0380    -0.3450     1.1020 c6         1 FY8      -0.107400
     17 HN1         -0.5750    -1.4510    -0.6020 hn         1 FY8       0.167000
     18 HO2          1.5910    -3.6910    -0.3270 ho         1 FY8       0.475000
     19 H3           1.5150     1.5800    -0.1510 ha         1 FY8       0.166000
     20 H5          -2.5700    -0.8590    -0.9250 hc         1 FY8       0.056700
     21 H6           3.7240    -2.8350    -0.0630 ha         1 FY8       0.118000
     22 H8           5.0750    -0.7850     0.1250 ha         1 FY8       0.132000
     23 H9          -4.9730    -0.1640    -1.5840 h1         1 FY8       0.053450
     24 H9A         -5.4710     1.4930    -1.3010 h1         1 FY8       0.053450
     25 H10         -4.9040    -0.9240     2.0200 h1         1 FY8       0.053450
     26 H10A        -4.6270    -1.6380     0.4430 h1         1 FY8       0.053450
     27 H11         -3.2770     2.0490    -0.3380 hc         1 FY8       0.057200
     28 H11A        -3.0570     1.3360    -1.9310 hc         1 FY8       0.057200
     29 H12         -2.4670    -1.1820     1.5140 hc         1 FY8       0.057200
     30 H12A        -2.9090     0.5010     1.7840 hc         1 FY8       0.057200
     31 N1          -0.1740    -0.5550    -0.3730 ns         1 FY8      -0.141000
     32 HN2         -5.3630     1.1250     1.0000 hn         1 FY8       0.407000
@<TRIPOS>BOND
     1     1    11 1   
     2     2     3 2   
     3     2     9 1   
     4     2    31 1   
     5     4     7 ar  
     6     4     8 ar  
     7     4    31 1   
     8     5    13 1   
     9     5    14 1   
    10     5    32 1   
    11     6     8 1   
    12     6    18 1   
    13     7    11 ar  
    14     7    19 1   
    15     8    10 ar  
    16     9    15 1   
    17     9    16 1   
    18     9    20 1   
    19    10    12 ar  
    20    10    21 1   
    21    11    12 ar  
    22    12    22 1   
    23    13    15 1   
    24    13    23 1   
    25    13    24 1   
    26    14    16 1   
    27    14    25 1   
    28    14    26 1   
    29    15    27 1   
    30    15    28 1   
    31    16    29 1   
    32    16    30 1   
    33    17    31 1   
@<TRIPOS>SUBSTRUCTURE
     1 FY8         1 TEMP              0 ****  ****    0 ROOT
