@<TRIPOS>MOLECULE
FY8
   32    33     1     0     0
SMALL
No Charge or Current Charge


@<TRIPOS>ATOM
      1 Cl           4.4650     1.8470     0.6730 cl         1 FY8      -0.198000
      2 C1          -1.0630     0.4590     0.2020 c          1 FY8       0.607100
      3 O1          -0.7620     1.5830     0.5870 o          1 FY8      -0.581100
      4 C2           1.2860    -0.5470    -0.1440 ca         1 FY8      -0.035000
      5 N2          -5.4570     0.3770     0.1770 n7         1 FY8      -0.845400
      6 O2           1.1780    -2.8250    -0.9240 oh         1 FY8      -0.553100
      7 C3           2.0840     0.5590     0.2340 ca         1 FY8      -0.099000
      8 C4           1.9230    -1.7410    -0.5530 ca         1 FY8       0.085100
      9 C5          -2.5450     0.0380     0.0590 c6         1 FY8      -0.140700
     10 C6           3.3250    -1.8280    -0.5840 ca         1 FY8      -0.171000
     11 C7           3.4850     0.4650     0.2010 ca         1 FY8       0.112000
     12 C8           4.1080    -0.7240    -0.2070 ca         1 FY8      -0.091000
     13 C9          -4.7820     0.3370    -1.1450 c6         1 FY8       0.149300
     14 C10         -4.7800    -0.4650     1.1950 c6         1 FY8       0.149300
     15 C11         -3.3160     0.8250    -1.0380 c6         1 FY8      -0.107400
     16 C12         -3.3140    -0.0140     1.4080 c6         1 FY8      -0.107400
     17 HN1         -0.5530    -1.3950    -0.4340 hn         1 FY8       0.167000
     18 HO2          1.7860    -3.5550    -1.1740 ho         1 FY8       0.475000
     19 H3           1.6440     1.4970     0.5550 ha         1 FY8       0.166000
     20 H5          -2.5150    -1.0020    -0.2980 hc         1 FY8       0.056700
     21 H6           3.8160    -2.7470    -0.8990 ha         1 FY8       0.118000
     22 H8           5.1930    -0.7880    -0.2290 ha         1 FY8       0.132000
     23 H9          -4.7990    -0.6920    -1.5350 h1         1 FY8       0.053450
     24 H9A         -5.3290     0.9690    -1.8610 h1         1 FY8       0.053450
     25 H10         -5.3260    -0.4060     2.1490 h1         1 FY8       0.053450
     26 H10A        -4.7970    -1.5170     0.8720 h1         1 FY8       0.053450
     27 H11         -3.3040     1.8980    -0.8030 hc         1 FY8       0.057200
     28 H11A        -2.8160     0.7120    -2.0100 hc         1 FY8       0.057200
     29 H12         -2.8140    -0.6990     2.1060 hc         1 FY8       0.057200
     30 H12A        -3.3030     0.9780     1.8810 hc         1 FY8       0.057200
     31 N1          -0.1390    -0.5220    -0.1350 ns         1 FY8      -0.141000
     32 HN2         -5.4530     1.3490     0.5100 hn         1 FY8       0.407000
@<TRIPOS>BOND
     1     1    11 1   
     2     2     3 2   
     3     2     9 1   
     4     2    31 1   
     5     4     7 ar  
     6     4     8 ar  
     7     4    31 1   
     8     5    13 1   
     9     5    14 1   
    10     5    32 1   
    11     6     8 1   
    12     6    18 1   
    13     7    11 ar  
    14     7    19 1   
    15     8    10 ar  
    16     9    15 1   
    17     9    16 1   
    18     9    20 1   
    19    10    12 ar  
    20    10    21 1   
    21    11    12 ar  
    22    12    22 1   
    23    13    15 1   
    24    13    23 1   
    25    13    24 1   
    26    14    16 1   
    27    14    25 1   
    28    14    26 1   
    29    15    27 1   
    30    15    28 1   
    31    16    29 1   
    32    16    30 1   
    33    17    31 1   
@<TRIPOS>SUBSTRUCTURE
     1 FY8         1 TEMP              0 ****  ****    0 ROOT
