@<TRIPOS>MOLECULE
FY9
   66    68     1     0     0
SMALL
No Charge or Current Charge


@<TRIPOS>ATOM
      1 C1          -3.7030     3.8290    33.4930 ca         1 FY9      -0.079300
      2 C2          -3.6430     2.5350    32.9390 ca         1 FY9      -0.097500
      3 C3          -2.4650     2.0810    32.3210 ca         1 FY9      -0.090500
      4 C4          -1.3360     2.9170    32.2510 ca         1 FY9       0.030000
      5 C5          -1.3910     4.2100    32.8020 ca         1 FY9      -0.090500
      6 C6          -2.5700     4.6640    33.4210 ca         1 FY9      -0.097500
      7 C7          -0.1340     2.4530    31.6200 cg         1 FY9      -0.102000
      8 C8           0.8860     2.0470    31.0870 ch         1 FY9      -0.107000
      9 C9           2.0670     1.5690    30.4500 ca         1 FY9       0.029000
     10 C10          3.1400     2.4440    30.2010 ca         1 FY9      -0.086500
     11 C11          4.3050     1.9720    29.5710 ca         1 FY9      -0.111000
     12 C12          4.4090     0.6210    29.1860 ca         1 FY9      -0.070300
     13 C13          3.3330    -0.2530    29.4390 ca         1 FY9      -0.111000
     14 C14          2.1680     0.2190    30.0670 ca         1 FY9      -0.086500
     15 C15          5.6710     0.1160    28.4970 c3         1 FY9      -0.029100
     16 C16          5.8200     0.6010    27.0240 c6         1 FY9      -0.055700
     17 C17          7.1540     0.1330    26.4070 c6         1 FY9      -0.095400
     18 C18          7.3240     0.6330    24.9540 c6         1 FY9       0.099500
     19 N19          6.1620     0.3390    24.0570 n          1 FY9      -0.420800
     20 C20          4.8250     0.6040    24.6690 c6         1 FY9       0.099500
     21 C21          4.6690     0.1030    26.1230 c6         1 FY9      -0.095400
     22 C22         -4.9780     4.3200    34.1680 c3         1 FY9       0.207900
     23 O23         -5.8290     4.9650    33.2130 oh         1 FY9      -0.655000
     24 C24          6.2990     0.4440    22.6450 c          1 FY9       0.616100
     25 C25          7.6860     0.0770    21.9790 c3         1 FY9       0.110500
     26 O26          5.3300     0.7550    21.9550 o          1 FY9      -0.573100
     27 C27          8.0310    -1.4250    22.2500 c3         1 FY9       0.160300
     28 N28          7.8380     0.4150    20.5110 n8         1 FY9      -0.989200
     29 C29          9.5210    -1.7400    21.9990 c3         1 FY9      -0.337400
     30 O30          7.2500    -2.2600    21.3850 oh         1 FY9      -0.643000
     31 S31         10.0590    -3.2450    22.8260 s6         1 FY9       1.074000
     32 C32         11.7410    -3.4920    22.2680 c3         1 FY9      -0.333100
     33 O33          9.2410    -4.3480    22.3100 o          1 FY9      -0.514000
     34 O34         10.0920    -2.9800    24.2690 o          1 FY9      -0.514000
     35 H1          -4.5120     1.8820    32.9860 ha         1 FY9       0.119500
     36 H2          -2.4310     1.0800    31.8960 ha         1 FY9       0.119500
     37 H3          -0.5230     4.8630    32.7520 ha         1 FY9       0.119500
     38 H4          -2.6030     5.6660    33.8430 ha         1 FY9       0.119500
     39 H5           3.0720     3.4900    30.4930 ha         1 FY9       0.120500
     40 H6           5.1280     2.6570    29.3830 ha         1 FY9       0.113500
     41 H7           3.3970    -1.2980    29.1440 ha         1 FY9       0.113500
     42 H8           1.3430    -0.4650    30.2550 ha         1 FY9       0.120500
     43 H9           5.7010    -0.9810    28.5270 hc         1 FY9       0.050700
     44 H10          6.5430     0.4440    29.0770 hc         1 FY9       0.050700
     45 H11          5.8070     1.7010    27.0480 hc         1 FY9       0.049700
     46 H12          7.2050    -0.9650    26.4170 hc         1 FY9       0.051950
     47 H13          7.9980     0.4890    27.0130 hc         1 FY9       0.051950
     48 H14          8.2450     0.1860    24.5600 h1         1 FY9       0.051700
     49 H15          7.4770     1.7220    24.9700 h1         1 FY9       0.051700
     50 H16          4.6430     1.6880    24.6470 h1         1 FY9       0.051700
     51 H17          4.0410     0.1330    24.0580 h1         1 FY9       0.051700
     52 H18          3.7000     0.4390    26.5150 hc         1 FY9       0.051950
     53 H19          4.6420    -0.9960    26.1260 hc         1 FY9       0.051950
     54 H20         -5.4970     3.4670    34.6260 h1         1 FY9       0.026700
     55 H21         -4.7160     5.0170    34.9750 h1         1 FY9       0.026700
     56 H22         -6.6300     5.2580    33.7020 ho         1 FY9       0.444000
     57 H23          8.4320     0.6860    22.5050 h1         1 FY9       0.066700
     58 H24          7.7990    -1.6470    23.3020 h1         1 FY9       0.061700
     59 H25          8.7330     0.0360    20.1820 hn         1 FY9       0.417500
     60 H26          7.1540    -0.1580    20.0020 hn         1 FY9       0.417500
     61 H28          9.7300    -1.8670    20.9310 h1         1 FY9       0.100700
     62 H29         10.1570    -0.9430    22.4020 h1         1 FY9       0.100700
     63 H30          7.5260    -3.1910    21.5430 ho         1 FY9       0.462000
     64 H31         12.3260    -2.6170    22.5720 h1         1 FY9       0.105367
     65 H32         12.1160    -4.4030    22.7460 h1         1 FY9       0.105367
     66 H33         11.7200    -3.5980    21.1790 h1         1 FY9       0.105367
@<TRIPOS>BOND
     1     1     2 ar  
     2     1     6 ar  
     3     1    22 1   
     4     2     3 ar  
     5     2    35 1   
     6     3     4 ar  
     7     3    36 1   
     8     4     5 ar  
     9     4     7 1   
    10     5     6 ar  
    11     5    37 1   
    12     6    38 1   
    13     7     8 3   
    14     8     9 1   
    15     9    10 ar  
    16     9    14 ar  
    17    10    11 ar  
    18    10    39 1   
    19    11    12 ar  
    20    11    40 1   
    21    12    13 ar  
    22    12    15 1   
    23    13    14 ar  
    24    13    41 1   
    25    14    42 1   
    26    15    16 1   
    27    15    43 1   
    28    15    44 1   
    29    16    17 1   
    30    16    21 1   
    31    16    45 1   
    32    17    18 1   
    33    17    46 1   
    34    17    47 1   
    35    18    19 1   
    36    18    48 1   
    37    18    49 1   
    38    19    20 1   
    39    19    24 1   
    40    20    21 1   
    41    20    50 1   
    42    20    51 1   
    43    21    52 1   
    44    21    53 1   
    45    22    23 1   
    46    22    54 1   
    47    22    55 1   
    48    23    56 1   
    49    24    25 1   
    50    24    26 2   
    51    25    27 1   
    52    25    28 1   
    53    25    57 1   
    54    27    29 1   
    55    27    30 1   
    56    27    58 1   
    57    28    59 1   
    58    28    60 1   
    59    29    31 1   
    60    29    61 1   
    61    29    62 1   
    62    30    63 1   
    63    31    32 1   
    64    31    33 2   
    65    31    34 2   
    66    32    64 1   
    67    32    65 1   
    68    32    66 1   
@<TRIPOS>SUBSTRUCTURE
     1 FY9         1 TEMP              0 ****  ****    0 ROOT
