@<TRIPOS>MOLECULE
FY9
   66    68     1     0     0
SMALL
bcc


@<TRIPOS>ATOM
      1 C1          -3.5070     3.5710    33.4970 ca         1 FY9      -0.079300
      2 C2          -3.4800     2.3330    32.8600 ca         1 FY9      -0.115500
      3 C3          -2.3510     1.8970    32.1890 ca         1 FY9      -0.108500
      4 C4          -1.2110     2.7050    32.1330 ca         1 FY9       0.030000
      5 C5          -1.2370     3.9510    32.7680 ca         1 FY9      -0.108500
      6 C6          -2.3700     4.3750    33.4390 ca         1 FY9      -0.115500
      7 C7          -0.0500     2.2680    31.4370 cg         1 FY9      -0.102000
      8 C8           0.9310     1.8920    30.8400 ch         1 FY9      -0.107000
      9 C9           2.0840     1.4500    30.1350 ca         1 FY9       0.029000
     10 C10          3.2570     2.2130    30.1380 ca         1 FY9      -0.104500
     11 C11          4.3760     1.7740    29.4530 ca         1 FY9      -0.129000
     12 C12          4.3660     0.5720    28.7450 ca         1 FY9      -0.070300
     13 C13          3.1950    -0.1820    28.7470 ca         1 FY9      -0.129000
     14 C14          2.0670     0.2440    29.4290 ca         1 FY9      -0.104500
     15 C15          5.5820     0.1330    27.9810 c3         1 FY9      -0.029100
     16 C16          5.7610     0.8780    26.6540 c6         1 FY9      -0.055700
     17 C17          7.1030     0.5290    26.0170 c6         1 FY9      -0.095400
     18 C18          7.2760     1.2080    24.6650 c6         1 FY9       0.099500
     19 N19          6.1720     0.8880    23.7760 n          1 FY9      -0.487800
     20 C20          4.8810     1.2720    24.3260 c6         1 FY9       0.099500
     21 C21          4.6360     0.5910    25.6650 c6         1 FY9      -0.095400
     22 C22         -4.7290     3.9980    34.2600 c3         1 FY9       0.184700
     23 O23         -4.9060     5.3880    34.1370 oh         1 FY9      -0.592800
     24 C24          6.2570     0.3390    22.5460 c          1 FY9       0.683100
     25 C25          7.6320    -0.1310    22.0550 c3         1 FY9       0.110500
     26 O26          5.2770     0.1800    21.8320 o          1 FY9      -0.573100
     27 C27          7.9760    -1.4500    22.7870 c3         1 FY9       0.137100
     28 N28          7.6020    -0.2180    20.6150 n8         1 FY9      -0.878800
     29 C29          9.4040    -1.8700    22.4470 c3         1 FY9      -0.226600
     30 O30          7.0330    -2.4150    22.4010 oh         1 FY9      -0.580800
     31 S31          9.8220    -3.4370    23.2240 s6         1 FY9       0.994000
     32 C32         11.6000    -3.4300    23.2540 c3         1 FY9      -0.222300
     33 O33          9.3790    -4.5360    22.3670 o          1 FY9      -0.584800
     34 O34          9.3280    -3.4070    24.6030 o          1 FY9      -0.584800
     35 H1          -4.3590     1.6980    32.8820 ha         1 FY9       0.137500
     36 H2          -2.3510     0.9340    31.6970 ha         1 FY9       0.137500
     37 H3          -0.3620     4.5880    32.7330 ha         1 FY9       0.137500
     38 H4          -2.3630     5.3420    33.9230 ha         1 FY9       0.137500
     39 H5           3.2880     3.1460    30.6840 ha         1 FY9       0.138500
     40 H6           5.2770     2.3760    29.4730 ha         1 FY9       0.131500
     41 H7           3.1630    -1.1200    28.2060 ha         1 FY9       0.131500
     42 H8           1.1680    -0.3580    29.4170 ha         1 FY9       0.138500
     43 H9           5.5300    -0.9420    27.7820 hc         1 FY9       0.050700
     44 H10          6.4720     0.2930    28.5960 hc         1 FY9       0.050700
     45 H11          5.7610     1.9560    26.8640 hc         1 FY9       0.049700
     46 H12          7.1800    -0.5570    25.8920 hc         1 FY9       0.051950
     47 H13          7.9250     0.8340    26.6700 hc         1 FY9       0.051950
     48 H14          8.2310     0.9300    24.2290 h1         1 FY9       0.051700
     49 H15          7.3060     2.2950    24.8040 h1         1 FY9       0.051700
     50 H16          4.8660     2.3610    24.4560 h1         1 FY9       0.051700
     51 H17          4.0980     1.0210    23.6160 h1         1 FY9       0.051700
     52 H18          3.6770     0.9340    26.0590 hc         1 FY9       0.051950
     53 H19          4.5480    -0.4900    25.5090 hc         1 FY9       0.051950
     54 H20         -5.5970     3.4390    33.8860 h1         1 FY9       0.026700
     55 H21         -4.6030     3.7040    35.3100 h1         1 FY9       0.026700
     56 H22         -5.5720     5.6600    34.7750 ho         1 FY9       0.405000
     57 H23          8.3980     0.6050    22.3090 h1         1 FY9       0.066700
     58 H24          7.9390    -1.2740    23.8670 h1         1 FY9       0.061700
     59 H25          8.5270    -0.4060    20.2530 hn         1 FY9       0.362300
     60 H26          6.9980    -0.9690    20.3090 hn         1 FY9       0.362300
     61 H28          9.5660    -2.0040    21.3760 h1         1 FY9       0.100700
     62 H29         10.1110    -1.1260    22.8200 h1         1 FY9       0.100700
     63 H30          6.8710    -3.0210    23.1300 ho         1 FY9       0.423000
     64 H31         11.9520    -2.6070    23.8700 h1         1 FY9       0.105367
     65 H32         11.9170    -4.3810    23.6790 h1         1 FY9       0.105367
     66 H33         11.9750    -3.3340    22.2370 h1         1 FY9       0.105367
@<TRIPOS>BOND
     1     1     2 ar  
     2     1     6 ar  
     3     1    22 1   
     4     2     3 ar  
     5     2    35 1   
     6     3     4 ar  
     7     3    36 1   
     8     4     5 ar  
     9     4     7 1   
    10     5     6 ar  
    11     5    37 1   
    12     6    38 1   
    13     7     8 3   
    14     8     9 1   
    15     9    10 ar  
    16     9    14 ar  
    17    10    11 ar  
    18    10    39 1   
    19    11    12 ar  
    20    11    40 1   
    21    12    13 ar  
    22    12    15 1   
    23    13    14 ar  
    24    13    41 1   
    25    14    42 1   
    26    15    16 1   
    27    15    43 1   
    28    15    44 1   
    29    16    17 1   
    30    16    21 1   
    31    16    45 1   
    32    17    18 1   
    33    17    46 1   
    34    17    47 1   
    35    18    19 1   
    36    18    48 1   
    37    18    49 1   
    38    19    20 1   
    39    19    24 1   
    40    20    21 1   
    41    20    50 1   
    42    20    51 1   
    43    21    52 1   
    44    21    53 1   
    45    22    23 1   
    46    22    54 1   
    47    22    55 1   
    48    23    56 1   
    49    24    25 1   
    50    24    26 2   
    51    25    27 1   
    52    25    28 1   
    53    25    57 1   
    54    27    29 1   
    55    27    30 1   
    56    27    58 1   
    57    28    59 1   
    58    28    60 1   
    59    29    31 1   
    60    29    61 1   
    61    29    62 1   
    62    30    63 1   
    63    31    32 1   
    64    31    33 2   
    65    31    34 2   
    66    32    64 1   
    67    32    65 1   
    68    32    66 1   
@<TRIPOS>SUBSTRUCTURE
     1 FY9         1 TEMP              0 ****  ****    0 ROOT
