@<TRIPOS>MOLECULE
FYA
   57    60     1     0     0
SMALL
abcg2


@<TRIPOS>ATOM
      1 C            1.3480    -1.5220    -2.7440 c3         1 FYA       0.236600
      2 CA           0.4320    -0.3220    -2.9270 c3         1 FYA       0.156500
      3 N            1.1650     0.7920    -3.4970 n8         1 FYA      -0.960200
      4 CB          -0.8000    -0.7590    -3.7470 c3         1 FYA      -0.084100
      5 CG          -1.8500     0.3100    -3.8070 ca         1 FYA      -0.065300
      6 CD1         -1.8520     1.2830    -4.8050 ca         1 FYA      -0.112500
      7 CD2         -2.8260     0.3830    -2.8140 ca         1 FYA      -0.112500
      8 CE1         -2.7970     2.3030    -4.8050 ca         1 FYA      -0.112000
      9 CE2         -3.7690     1.4000    -2.8060 ca         1 FYA      -0.112000
     10 CZ          -3.7560     2.3680    -3.8030 ca         1 FYA      -0.125000
     11 P            3.2890    -2.3740    -1.1930 p5         1 FYA       1.403800
     12 O1P          2.3840    -3.2570    -0.3810 o          1 FYA      -0.827500
     13 O2P          4.2250    -2.9700    -2.1970 o          1 FYA      -0.827500
     14 O3P          2.4230    -1.1790    -1.8980 os         1 FYA      -0.581400
     15 O5           4.2070    -1.4350    -0.2120 os         1 FYA      -0.573400
     16 C5           3.8920    -1.1960     1.1410 c3         1 FYA       0.220600
     17 C4           3.3720     0.2140     1.3660 c5         1 FYA       0.138300
     18 O4           2.1350     0.4310     0.6810 os         1 FYA      -0.410000
     19 C3           3.0860     0.4820     2.8400 c5         1 FYA       0.104300
     20 O3           3.2590     1.8530     3.0910 oh         1 FYA      -0.709000
     21 C2           1.6090     0.0910     2.9280 c5         1 FYA       0.068300
     22 O2           0.9010     0.6760     3.9780 oh         1 FYA      -0.700000
     23 C1           1.0910     0.6120     1.5880 c5         1 FYA       0.322300
     24 N9          -0.0840    -0.0810     1.1130 na         1 FYA      -0.286300
     25 C8          -0.1520    -1.3530     0.6080 cc         1 FYA       0.443700
     26 N7          -1.3680    -1.7240     0.3260 nd         1 FYA      -0.580100
     27 C7          -2.1450    -0.6480     0.6670 ca         1 FYA      -0.094600
     28 C6          -3.5280    -0.4080     0.5960 ca         1 FYA       0.432900
     29 N6          -4.3920    -1.3110     0.1250 nv         1 FYA      -1.077900
     30 N1          -3.9810     0.7850     0.9970 nb         1 FYA      -0.317000
     31 C10         -3.1110     1.6910     1.4370 ca         1 FYA       0.159900
     32 N3          -1.8000     1.5830     1.5530 nb         1 FYA      -0.203000
     33 C9          -1.3650     0.3900     1.1530 ca         1 FYA       0.122500
     34 H1           0.7630    -2.3450    -2.3190 h1         1 FYA       0.017200
     35 H2A          1.7150    -1.8550    -3.7250 h1         1 FYA       0.017200
     36 HA           0.0890    -0.0140    -1.9330 h1         1 FYA       0.074700
     37 HN1          1.4190     0.5800    -4.4560 hn         1 FYA       0.378500
     38 HN2          0.5710     1.6110    -3.5430 hn         1 FYA       0.378500
     39 HB1         -0.4730    -1.0300    -4.7550 hc         1 FYA       0.049700
     40 HB2         -1.2280    -1.6620    -3.3000 hc         1 FYA       0.049700
     41 HD1         -1.1160     1.2400    -5.6000 ha         1 FYA       0.114500
     42 HD2         -2.8510    -0.3770    -2.0440 ha         1 FYA       0.114500
     43 HE1         -2.7820     3.0470    -5.5910 ha         1 FYA       0.107000
     44 HE2         -4.5130     1.4370    -2.0200 ha         1 FYA       0.107000
     45 HZ          -4.4900     3.1630    -3.8020 ha         1 FYA       0.101000
     46 H5'1         3.1820    -1.9350     1.5240 h1         1 FYA       0.028700
     47 H5'2         4.8130    -1.3040     1.7210 h1         1 FYA       0.028700
     48 H4           4.1070     0.9280     0.9820 h1         1 FYA       0.101700
     49 H3           3.7120    -0.1320     3.4990 h1         1 FYA       0.049700
     50 HO'3         2.7750     2.0720     3.8970 ho         1 FYA       0.508000
     51 H2           1.5290    -1.0040     2.9470 h1         1 FYA       0.065700
     52 HO'2         1.0240     0.1430     4.7700 ho         1 FYA       0.503000
     53 H7           0.8050     1.6660     1.6790 h2         1 FYA       0.105700
     54 H8           0.7330    -1.9540     0.4440 h5         1 FYA       0.132800
     55 H61         -5.3800    -1.1240     0.1440 hn         1 FYA       0.498500
     56 H62         -4.0910    -2.2420    -0.1030 hn         1 FYA       0.498500
     57 H9          -3.5410     2.6390     1.7420 h5         1 FYA       0.033100
@<TRIPOS>BOND
     1     1     2 1   
     2     1    14 1   
     3     1    34 1   
     4     1    35 1   
     5     2     3 1   
     6     2     4 1   
     7     2    36 1   
     8     3    37 1   
     9     3    38 1   
    10     4     5 1   
    11     4    39 1   
    12     4    40 1   
    13     5     6 ar  
    14     5     7 ar  
    15     6     8 ar  
    16     6    41 1   
    17     7     9 ar  
    18     7    42 1   
    19     8    10 ar  
    20     8    43 1   
    21     9    10 ar  
    22     9    44 1   
    23    10    45 1   
    24    11    12 1   
    25    11    13 1   
    26    11    14 1   
    27    11    15 1   
    28    15    16 1   
    29    16    17 1   
    30    16    46 1   
    31    16    47 1   
    32    17    18 1   
    33    17    19 1   
    34    17    48 1   
    35    18    23 1   
    36    19    20 1   
    37    19    21 1   
    38    19    49 1   
    39    20    50 1   
    40    21    22 1   
    41    21    23 1   
    42    21    51 1   
    43    22    52 1   
    44    23    24 1   
    45    23    53 1   
    46    24    25 1   
    47    24    33 1   
    48    25    26 2   
    49    25    54 1   
    50    26    27 1   
    51    27    28 ar  
    52    27    33 ar  
    53    28    29 1   
    54    28    30 ar  
    55    29    55 1   
    56    29    56 1   
    57    30    31 ar  
    58    31    32 ar  
    59    31    57 1   
    60    32    33 ar  
@<TRIPOS>SUBSTRUCTURE
     1 FYA         1 TEMP              0 ****  ****    0 ROOT
