@<TRIPOS>MOLECULE
FYA
   57    60     1     0     0
SMALL
No Charge or Current Charge


@<TRIPOS>ATOM
      1 C            2.6260    -0.0880    -3.3960 c3         1 FYA       0.236600
      2 CA           1.1680     0.1450    -2.8700 c3         1 FYA       0.156500
      3 N            1.0100     1.4570    -2.1850 n8         1 FYA      -0.960200
      4 CB           0.1220     0.0230    -4.0050 c3         1 FYA      -0.084100
      5 CG          -1.3270     0.0820    -3.5240 ca         1 FYA      -0.065300
      6 CD1         -2.1950     1.0860    -3.9950 ca         1 FYA      -0.112500
      7 CD2         -1.8190    -0.8930    -2.6320 ca         1 FYA      -0.112500
      8 CE1         -3.5390     1.1150    -3.5820 ca         1 FYA      -0.112000
      9 CE2         -3.1620    -0.8640    -2.2190 ca         1 FYA      -0.112000
     10 CZ          -4.0230     0.1360    -2.6990 ca         1 FYA      -0.125000
     11 P            3.5560    -2.1630    -2.0670 p5         1 FYA       1.403800
     12 O1P          2.2200    -2.8230    -2.0060 o          1 FYA      -0.827500
     13 O2P          4.4460    -2.8190    -3.0700 o          1 FYA      -0.827500
     14 O3P          3.4760    -0.5760    -2.3450 os         1 FYA      -0.581400
     15 O5           4.2650    -2.1390    -0.6170 os         1 FYA      -0.573400
     16 C5           3.5340    -1.9870     0.6160 c3         1 FYA       0.220600
     17 C4           2.8890    -0.5730     0.7450 c5         1 FYA       0.138300
     18 O4           1.4640    -0.6620     0.4570 os         1 FYA      -0.410000
     19 C3           2.9920     0.0490     2.1920 c5         1 FYA       0.104300
     20 O3           3.3030     1.4470     2.1710 oh         1 FYA      -0.709000
     21 C2           1.5430    -0.1400     2.7220 c5         1 FYA       0.068300
     22 O2           1.2510     0.7590     3.8130 oh         1 FYA      -0.700000
     23 C1           0.7720     0.1640     1.4020 c5         1 FYA       0.322300
     24 N9          -0.6620    -0.1190     1.3630 na         1 FYA      -0.286300
     25 C8          -1.3060    -1.1540     2.0490 cc         1 FYA       0.443700
     26 N7          -2.6480    -1.0370     1.9710 nd         1 FYA      -0.580100
     27 C7          -2.8240     0.1180     1.2020 ca         1 FYA      -0.094600
     28 C6          -4.0160     0.7630     0.8100 ca         1 FYA       0.432900
     29 N6          -5.2490     0.3060     1.1590 nv         1 FYA      -1.077900
     30 N1          -3.9900     1.8960     0.0910 nb         1 FYA      -0.317000
     31 C10         -2.7600     2.3570    -0.2470 ca         1 FYA       0.159900
     32 N3          -1.5680     1.8060     0.0850 nb         1 FYA      -0.203000
     33 C9          -1.6310     0.6770     0.8190 ca         1 FYA       0.122500
     34 H1           2.5990    -0.8160    -4.2180 h1         1 FYA       0.017200
     35 H2A          3.0250     0.8470    -3.8110 h1         1 FYA       0.017200
     36 HA           0.9470    -0.6380    -2.1340 h1         1 FYA       0.074700
     37 HN1          1.0300     2.2040    -2.8850 hn         1 FYA       0.378500
     38 HN2          0.0590     1.5040    -1.8050 hn         1 FYA       0.378500
     39 HB1          0.3130     0.8010    -4.7550 hc         1 FYA       0.049700
     40 HB2          0.2770    -0.9320    -4.5200 hc         1 FYA       0.049700
     41 HD1         -1.8330     1.8430    -4.6870 ha         1 FYA       0.114500
     42 HD2         -1.1640    -1.6790    -2.2630 ha         1 FYA       0.114500
     43 HE1         -4.2040     1.8920    -3.9500 ha         1 FYA       0.107000
     44 HE2         -3.5350    -1.6170    -1.5290 ha         1 FYA       0.107000
     45 HZ          -5.0620     0.1590    -2.3780 ha         1 FYA       0.101000
     46 H5'1         2.7550    -2.7560     0.7060 h1         1 FYA       0.028700
     47 H5'2         4.2260    -2.1370     1.4540 h1         1 FYA       0.028700
     48 H4           3.3620     0.1080     0.0270 h1         1 FYA       0.101700
     49 H3           3.7170    -0.4880     2.8210 h1         1 FYA       0.049700
     50 HO'3         2.7340     1.8250     2.8880 ho         1 FYA       0.508000
     51 H2           1.3820    -1.1850     3.0260 h1         1 FYA       0.065700
     52 HO'2         1.3850     0.2640     4.6570 ho         1 FYA       0.503000
     53 H7           0.8910     1.2210     1.1260 h2         1 FYA       0.105700
     54 H8          -0.7620    -1.9280     2.5820 h5         1 FYA       0.132800
     55 H61         -6.0300     0.9540     1.1110 hn         1 FYA       0.498500
     56 H62         -5.2890    -0.4090     1.8810 hn         1 FYA       0.498500
     57 H9          -2.7270     3.2700    -0.8390 h5         1 FYA       0.033100
@<TRIPOS>BOND
     1     1     2 1   
     2     1    14 1   
     3     1    34 1   
     4     1    35 1   
     5     2     3 1   
     6     2     4 1   
     7     2    36 1   
     8     3    37 1   
     9     3    38 1   
    10     4     5 1   
    11     4    39 1   
    12     4    40 1   
    13     5     6 ar  
    14     5     7 ar  
    15     6     8 ar  
    16     6    41 1   
    17     7     9 ar  
    18     7    42 1   
    19     8    10 ar  
    20     8    43 1   
    21     9    10 ar  
    22     9    44 1   
    23    10    45 1   
    24    11    12 1   
    25    11    13 1   
    26    11    14 1   
    27    11    15 1   
    28    15    16 1   
    29    16    17 1   
    30    16    46 1   
    31    16    47 1   
    32    17    18 1   
    33    17    19 1   
    34    17    48 1   
    35    18    23 1   
    36    19    20 1   
    37    19    21 1   
    38    19    49 1   
    39    20    50 1   
    40    21    22 1   
    41    21    23 1   
    42    21    51 1   
    43    22    52 1   
    44    23    24 1   
    45    23    53 1   
    46    24    25 1   
    47    24    33 1   
    48    25    26 2   
    49    25    54 1   
    50    26    27 1   
    51    27    28 ar  
    52    27    33 ar  
    53    28    29 1   
    54    28    30 ar  
    55    29    55 1   
    56    29    56 1   
    57    30    31 ar  
    58    31    32 ar  
    59    31    57 1   
    60    32    33 ar  
@<TRIPOS>SUBSTRUCTURE
     1 FYA         1 TEMP              0 ****  ****    0 ROOT
