@<TRIPOS>MOLECULE
FYB
   41    43     1     0     0
SMALL
abcg2


@<TRIPOS>ATOM
      1 C2           5.4970     0.3350     0.7390 c6         1 FYB      -0.121400
      2 C1           4.3880    -0.5770     1.2580 c6         1 FYB      -0.084400
      3 C3           5.4930     0.3870    -0.7690 c6         1 FYB       0.180000
      4 C13         -5.6250     1.5310     0.4830 ca         1 FYB       0.142000
      5 C10         -3.6300    -1.0000    -1.4160 c          1 FYB       0.586900
      6 C8          -1.4720    -0.9850    -0.2940 cc         1 FYB       0.049900
      7 C9          -2.2670    -1.4720    -1.2600 cd         1 FYB      -0.314200
      8 C4           4.1490     0.7600    -1.3460 c6         1 FYB      -0.121400
      9 C5           3.0540    -0.1640    -0.8170 c6         1 FYB      -0.084400
     10 C7          -0.0540    -1.4570    -0.1160 c          1 FYB       0.620300
     11 C15         -3.4460     1.4240     1.4610 ca         1 FYB      -0.115000
     12 C16         -3.1110     0.4540     0.5200 ca         1 FYB       0.135100
     13 C12         -5.3070     0.5790    -0.4500 ca         1 FYB      -0.068000
     14 C14         -4.7120     1.9650     1.4420 ca         1 FYB      -0.096000
     15 C11         -4.0240     0.0240    -0.4380 ca         1 FYB      -0.203600
     16 O2          -4.3880    -1.4110    -2.2800 o          1 FYB      -0.513100
     17 O3          -1.8580    -0.0520     0.5780 os         1 FYB      -0.226200
     18 O1           0.3870    -2.3110    -0.8650 o          1 FYB      -0.571100
     19 C6           1.9890    -1.2200     1.2220 c3         1 FYB       0.074000
     20 C            3.0120    -0.1940     0.7140 c6         1 FYB       0.162000
     21 O            2.7080     1.0880     1.2330 oh         1 FYB      -0.661000
     22 F            5.8770    -0.8390    -1.2660 f          1 FYB      -0.124000
     23 F1           6.4520     1.2630    -1.2120 f          1 FYB      -0.124000
     24 H1           5.3530     1.3490     1.1150 hc         1 FYB       0.072950
     25 H2           6.4700    -0.0080     1.0980 hc         1 FYB       0.072950
     26 H3           4.5970    -1.6140     0.9830 hc         1 FYB       0.062450
     27 H4           4.3780    -0.5430     2.3500 hc         1 FYB       0.062450
     28 H5          -1.8830    -2.2260    -1.9310 ha         1 FYB       0.240000
     29 H6           3.9370     1.7950    -1.0700 hc         1 FYB       0.072950
     30 H7           4.1850     0.7180    -2.4370 hc         1 FYB       0.072950
     31 H8           2.0910     0.1640    -1.2190 hc         1 FYB       0.062450
     32 H9           3.2070    -1.1790    -1.1890 hc         1 FYB       0.062450
     33 H10         -2.7200     1.7460     2.1960 ha         1 FYB       0.137000
     34 H11         -6.0320     0.2560    -1.1860 ha         1 FYB       0.159000
     35 H12         -4.9970     2.7180     2.1640 ha         1 FYB       0.141000
     36 H13          0.1570    -0.2150     1.4750 hn         1 FYB       0.334500
     37 H14          2.0530    -1.2790     2.3110 h1         1 FYB       0.071200
     38 H15          2.2180    -2.2090     0.8270 h1         1 FYB       0.071200
     39 H16          1.9910     1.4730     0.7180 ho         1 FYB       0.445000
     40 N            0.6260    -0.8800     0.8800 ns         1 FYB      -0.493900
     41 F2          -6.8510     2.0660     0.4850 f          1 FYB      -0.168000
@<TRIPOS>BOND
     1     1     2 1   
     2     1     3 1   
     3     1    24 1   
     4     1    25 1   
     5     2    20 1   
     6     2    26 1   
     7     2    27 1   
     8     3     8 1   
     9     3    22 1   
    10     3    23 1   
    11     4    13 ar  
    12     4    14 ar  
    13     4    41 1   
    14     5     7 1   
    15     5    15 1   
    16     5    16 2   
    17     6     7 2   
    18     6    10 1   
    19     6    17 1   
    20     7    28 1   
    21     8     9 1   
    22     8    29 1   
    23     8    30 1   
    24     9    20 1   
    25     9    31 1   
    26     9    32 1   
    27    10    18 2   
    28    10    40 1   
    29    11    12 ar  
    30    11    14 ar  
    31    11    33 1   
    32    12    15 ar  
    33    12    17 1   
    34    13    15 ar  
    35    13    34 1   
    36    14    35 1   
    37    19    20 1   
    38    19    37 1   
    39    19    38 1   
    40    19    40 1   
    41    20    21 1   
    42    21    39 1   
    43    36    40 1   
@<TRIPOS>SUBSTRUCTURE
     1 FYB         1 TEMP              0 ****  ****    0 ROOT
