@<TRIPOS>MOLECULE
FYB
   41    43     1     0     0
SMALL
No Charge or Current Charge


@<TRIPOS>ATOM
      1 C2           5.6340     0.3580     0.7360 c6         1 FYB      -0.121400
      2 C1           4.5000    -0.5420     1.3030 c6         1 FYB      -0.084400
      3 C3           5.6590     0.3260    -0.8100 c6         1 FYB       0.180000
      4 C13         -5.8540     1.5150     0.5130 ca         1 FYB       0.142000
      5 C10         -3.6700    -0.8880    -1.4550 c          1 FYB       0.586900
      6 C8          -1.4610    -0.9060    -0.2630 cc         1 FYB       0.049900
      7 C9          -2.3010    -1.3290    -1.2830 cd         1 FYB      -0.314200
      8 C4           4.2840     0.6540    -1.4380 c6         1 FYB      -0.121400
      9 C5           3.1610    -0.2470    -0.8500 c6         1 FYB      -0.084400
     10 C7          -0.0550    -1.4080    -0.1540 c          1 FYB       0.620300
     11 C15         -3.6610     1.3860     1.5480 ca         1 FYB      -0.115000
     12 C16         -3.2340     0.4670     0.5710 ca         1 FYB       0.135100
     13 C12         -5.4440     0.6000    -0.4670 ca         1 FYB      -0.068000
     14 C14         -4.9660     1.9110     1.5230 ca         1 FYB      -0.096000
     15 C11         -4.1310     0.0750    -0.4390 ca         1 FYB      -0.203600
     16 O2          -4.3800    -1.2850    -2.3690 o          1 FYB      -0.513100
     17 O3          -1.9270     0.0080     0.6840 os         1 FYB      -0.226200
     18 O1           0.4570    -2.2070    -0.9290 o          1 FYB      -0.571100
     19 C6           2.0320    -1.2020     1.2710 c3         1 FYB       0.074000
     20 C            3.0990    -0.1980     0.7100 c6         1 FYB       0.162000
     21 O            2.7260     1.1240     1.1250 oh         1 FYB      -0.661000
     22 F            6.0840    -0.9420    -1.2470 f          1 FYB      -0.124000
     23 F1           6.6140     1.2450    -1.2770 f          1 FYB      -0.124000
     24 H1           5.4900     1.3920     1.0780 hc         1 FYB       0.072950
     25 H2           6.6050     0.0340     1.1330 hc         1 FYB       0.072950
     26 H3           4.7370    -1.5950     1.0930 hc         1 FYB       0.062450
     27 H4           4.4760    -0.4510     2.3970 hc         1 FYB       0.062450
     28 H5          -1.9700    -2.0360    -2.0340 ha         1 FYB       0.240000
     29 H6           4.0440     1.7110    -1.2580 hc         1 FYB       0.072950
     30 H7           4.3330     0.5310    -2.5280 hc         1 FYB       0.072950
     31 H8           2.1980     0.0550    -1.2820 hc         1 FYB       0.062450
     32 H9           3.3240    -1.2850    -1.1760 hc         1 FYB       0.062450
     33 H10         -2.9730     1.6940     2.3320 ha         1 FYB       0.137000
     34 H11         -6.1460     0.3030    -1.2440 ha         1 FYB       0.159000
     35 H12         -5.2880     2.6210     2.2820 ha         1 FYB       0.141000
     36 H13          0.1110    -0.2560     1.5210 hn         1 FYB       0.334500
     37 H14          2.1110    -1.2170     2.3660 h1         1 FYB       0.071200
     38 H15          2.2750    -2.2130     0.9170 h1         1 FYB       0.071200
     39 H16          1.8730     1.3220     0.6850 ho         1 FYB       0.445000
     40 N            0.6360    -0.8830     0.9200 ns         1 FYB      -0.493900
     41 F2          -7.1090     2.0160     0.4850 f          1 FYB      -0.168000
@<TRIPOS>BOND
     1     1     2 1   
     2     1     3 1   
     3     1    24 1   
     4     1    25 1   
     5     2    20 1   
     6     2    26 1   
     7     2    27 1   
     8     3     8 1   
     9     3    22 1   
    10     3    23 1   
    11     4    13 ar  
    12     4    14 ar  
    13     4    41 1   
    14     5     7 1   
    15     5    15 1   
    16     5    16 2   
    17     6     7 2   
    18     6    10 1   
    19     6    17 1   
    20     7    28 1   
    21     8     9 1   
    22     8    29 1   
    23     8    30 1   
    24     9    20 1   
    25     9    31 1   
    26     9    32 1   
    27    10    18 2   
    28    10    40 1   
    29    11    12 ar  
    30    11    14 ar  
    31    11    33 1   
    32    12    15 ar  
    33    12    17 1   
    34    13    15 ar  
    35    13    34 1   
    36    14    35 1   
    37    19    20 1   
    38    19    37 1   
    39    19    38 1   
    40    19    40 1   
    41    20    21 1   
    42    21    39 1   
    43    36    40 1   
@<TRIPOS>SUBSTRUCTURE
     1 FYB         1 TEMP              0 ****  ****    0 ROOT
