@<TRIPOS>MOLECULE
FYC
   40    42     1     0     0
SMALL
No Charge or Current Charge


@<TRIPOS>ATOM
      1 O1          -7.5380    -1.9910    -0.3880 o          1 FYC      -0.559000
      2 C1          -6.5650    -1.2890    -0.1900 c          1 FYC       0.593000
      3 N1          -6.2180    -0.5940     0.9360 ns         1 FYC      -0.504600
      4 C2          -5.0150     0.1170     0.8090 ca         1 FYC       0.012600
      5 C3          -4.3090     0.9360     1.6930 ca         1 FYC      -0.114000
      6 C4          -3.1020     1.5010     1.2190 ca         1 FYC      -0.092000
      7 C5          -2.6380     1.2410    -0.1020 ca         1 FYC      -0.115300
      8 C6          -1.3330     1.8570    -0.5810 c3         1 FYC       0.153300
      9 N2          -0.2010     0.9960    -0.2540 ns         1 FYC      -0.506900
     10 C7           1.1100     1.2880    -0.5440 c          1 FYC       0.600300
     11 C8           2.1350     0.2580    -0.1220 ce         1 FYC      -0.180400
     12 C9           1.6470    -0.9390     0.7010 c3         1 FYC      -0.058900
     13 C10          3.4620     0.4530    -0.4140 cf         1 FYC      -0.089200
     14 C11          4.6470    -0.3960    -0.1520 ca         1 FYC      -0.106800
     15 C12          4.5840    -1.8010    -0.2750 ca         1 FYC      -0.074000
     16 C13          5.7240    -2.5910    -0.0450 ca         1 FYC      -0.130000
     17 C14          6.9450    -1.9890     0.3010 ca         1 FYC      -0.077000
     18 C15          7.0250    -0.5900     0.4060 ca         1 FYC      -0.154000
     19 C16          5.8860     0.1980     0.1740 ca         1 FYC       0.187000
     20 F1           5.9880     1.5430     0.2840 f          1 FYC      -0.172000
     21 O2           1.4090     2.3220    -1.1250 o          1 FYC      -0.608100
     22 C17         -3.3820     0.4020    -0.9690 ca         1 FYC      -0.097000
     23 C18         -4.5690    -0.1400    -0.4700 ca         1 FYC      -0.000400
     24 N3          -5.5320    -0.9910    -1.0360 ns         1 FYC      -0.504600
     25 H1          -6.7920    -0.6040     1.7730 hn         1 FYC       0.470000
     26 H3          -5.4850    -1.3600    -1.9810 hn         1 FYC       0.470000
     27 HA          -4.6700     1.1300     2.7000 ha         1 FYC       0.126000
     28 H4          -2.5210     2.1430     1.8780 ha         1 FYC       0.124000
     29 H61C        -1.3670     2.0060    -1.6690 h1         1 FYC       0.059700
     30 H62C        -1.1870     2.8370    -0.1080 h1         1 FYC       0.059700
     31 H17         -3.0450     0.1850    -1.9800 ha         1 FYC       0.126000
     32 H2          -0.3860     0.1180     0.2120 hn         1 FYC       0.320500
     33 H91C         1.2370    -1.7250     0.0560 hc         1 FYC       0.045367
     34 H92C         2.4520    -1.3810     1.2980 hc         1 FYC       0.045367
     35 H93C         0.8730    -0.6590     1.4250 hc         1 FYC       0.045367
     36 H10          3.7190     1.3730    -0.9470 ha         1 FYC       0.215000
     37 H12          3.6570    -2.2870    -0.5710 ha         1 FYC       0.119000
     38 H13          5.6620    -3.6730    -0.1420 ha         1 FYC       0.119000
     39 H14          7.8260    -2.6020     0.4780 ha         1 FYC       0.119000
     40 H15          7.9670    -0.1160     0.6660 ha         1 FYC       0.134000
@<TRIPOS>BOND
     1     1     2 2   
     2     2     3 1   
     3     2    24 1   
     4     3     4 1   
     5     3    25 1   
     6     4     5 ar  
     7     4    23 ar  
     8     5     6 ar  
     9     5    27 1   
    10     6     7 ar  
    11     6    28 1   
    12     7     8 1   
    13     7    22 ar  
    14     8     9 1   
    15     8    29 1   
    16     8    30 1   
    17     9    10 1   
    18     9    32 1   
    19    10    11 1   
    20    10    21 2   
    21    11    12 1   
    22    11    13 2   
    23    12    33 1   
    24    12    34 1   
    25    12    35 1   
    26    13    14 1   
    27    13    36 1   
    28    14    15 ar  
    29    14    19 ar  
    30    15    16 ar  
    31    15    37 1   
    32    16    17 ar  
    33    16    38 1   
    34    17    18 ar  
    35    17    39 1   
    36    18    19 ar  
    37    18    40 1   
    38    19    20 1   
    39    22    23 ar  
    40    22    31 1   
    41    23    24 1   
    42    24    26 1   
@<TRIPOS>SUBSTRUCTURE
     1 FYC         1 TEMP              0 ****  ****    0 ROOT
