@<TRIPOS>MOLECULE
FYC
   40    42     1     0     0
SMALL
abcg2


@<TRIPOS>ATOM
      1 O1          -7.4570    -1.9300    -0.3450 o          1 FYC      -0.559000
      2 C1          -6.4690    -1.2400    -0.1680 c          1 FYC       0.593000
      3 N1          -6.1000    -0.5910     0.9860 ns         1 FYC      -0.504600
      4 C2          -4.9150     0.0870     0.8100 ca         1 FYC       0.012600
      5 C3          -4.1550     0.8700     1.6580 ca         1 FYC      -0.114000
      6 C4          -2.9850     1.4220     1.1450 ca         1 FYC      -0.092000
      7 C5          -2.5850     1.2030    -0.1740 ca         1 FYC      -0.115300
      8 C6          -1.2880     1.7790    -0.6710 c3         1 FYC       0.153300
      9 N2          -0.1840     0.9300    -0.2600 ns         1 FYC      -0.506900
     10 C7           1.0970     1.2740    -0.4630 c          1 FYC       0.600300
     11 C8           2.1170     0.2690    -0.0080 ce         1 FYC      -0.180400
     12 C9           1.6780    -0.8620     0.8730 c3         1 FYC      -0.058900
     13 C10          3.3760     0.4820    -0.4110 cf         1 FYC      -0.089200
     14 C11          4.5310    -0.3860    -0.1610 ca         1 FYC      -0.106800
     15 C12          4.4940    -1.7720    -0.3320 ca         1 FYC      -0.074000
     16 C13          5.6180    -2.5550    -0.1170 ca         1 FYC      -0.130000
     17 C14          6.8130    -1.9630     0.2700 ca         1 FYC      -0.077000
     18 C15          6.8860    -0.5870     0.4350 ca         1 FYC      -0.154000
     19 C16          5.7520     0.1670     0.2110 ca         1 FYC       0.187000
     20 F1           5.8240     1.4980     0.3700 f          1 FYC      -0.172000
     21 O2           1.4030     2.3370    -0.9900 o          1 FYC      -0.608100
     22 C17         -3.3600     0.4110    -1.0210 ca         1 FYC      -0.097000
     23 C18         -4.5220    -0.1360    -0.5140 ca         1 FYC      -0.000400
     24 N3          -5.4860    -0.9410    -1.0780 ns         1 FYC      -0.504600
     25 H1          -6.6280    -0.6500     1.8410 hn         1 FYC       0.470000
     26 H3          -5.4890    -1.2860    -2.0250 hn         1 FYC       0.470000
     27 HA          -4.4550     1.0510     2.6810 ha         1 FYC       0.126000
     28 H4          -2.3730     2.0420     1.7880 ha         1 FYC       0.124000
     29 H61C        -1.3100     1.8730    -1.7610 h1         1 FYC       0.059700
     30 H62C        -1.1380     2.7830    -0.2700 h1         1 FYC       0.059700
     31 H17         -3.0600     0.2360    -2.0470 ha         1 FYC       0.126000
     32 H2          -0.4150     0.0150     0.0910 hn         1 FYC       0.320500
     33 H91C         1.1140    -1.6190     0.3230 hc         1 FYC       0.045367
     34 H92C         2.5260    -1.3620     1.3340 hc         1 FYC       0.045367
     35 H93C         1.0380    -0.5030     1.6810 hc         1 FYC       0.045367
     36 H10          3.5700     1.3800    -0.9870 ha         1 FYC       0.215000
     37 H12          3.5760    -2.2370    -0.6660 ha         1 FYC       0.119000
     38 H13          5.5620    -3.6260    -0.2610 ha         1 FYC       0.119000
     39 H14          7.6920    -2.5690     0.4420 ha         1 FYC       0.119000
     40 H15          7.8080    -0.1060     0.7340 ha         1 FYC       0.134000
@<TRIPOS>BOND
     1     1     2 2   
     2     2     3 1   
     3     2    24 1   
     4     3     4 1   
     5     3    25 1   
     6     4     5 ar  
     7     4    23 ar  
     8     5     6 ar  
     9     5    27 1   
    10     6     7 ar  
    11     6    28 1   
    12     7     8 1   
    13     7    22 ar  
    14     8     9 1   
    15     8    29 1   
    16     8    30 1   
    17     9    10 1   
    18     9    32 1   
    19    10    11 1   
    20    10    21 2   
    21    11    12 1   
    22    11    13 2   
    23    12    33 1   
    24    12    34 1   
    25    12    35 1   
    26    13    14 1   
    27    13    36 1   
    28    14    15 ar  
    29    14    19 ar  
    30    15    16 ar  
    31    15    37 1   
    32    16    17 ar  
    33    16    38 1   
    34    17    18 ar  
    35    17    39 1   
    36    18    19 ar  
    37    18    40 1   
    38    19    20 1   
    39    22    23 ar  
    40    22    31 1   
    41    23    24 1   
    42    24    26 1   
@<TRIPOS>SUBSTRUCTURE
     1 FYC         1 TEMP              0 ****  ****    0 ROOT
