@<TRIPOS>MOLECULE
FYD
   48    50     1     0     0
SMALL
No Charge or Current Charge


@<TRIPOS>ATOM
      1 C14          0.3470    -1.4630     0.1290 c          1 FYD       0.626700
      2 C16         -1.5040    -1.2760     1.8380 ca         1 FYD      -0.006000
      3 C17         -2.7900    -1.5770     2.3100 ca         1 FYD      -0.158000
      4 C19         -3.1660    -2.9980     0.3820 ca         1 FYD      -0.224000
      5 C20         -1.8730    -2.7020    -0.1060 ca         1 FYD       0.203100
      6 C22         -2.2040    -4.1370    -2.0970 c3         1 FYD       0.148900
      7 C29         -5.3700     0.6110     0.3510 ca         1 FYD      -0.056000
      8 C30         -5.0880     1.1960     1.5930 ca         1 FYD      -0.103000
      9 C31         -3.8290     1.7630     1.8260 ca         1 FYD      -0.075000
     10 C32         -2.8500     1.7500     0.8180 ca         1 FYD      -0.098000
     11 O01         -2.2740     1.0870    -2.7230 o          1 FYD      -0.572100
     12 C02         -2.0330     1.1820    -1.5280 c          1 FYD       0.617700
     13 N03         -0.7420     1.3530    -1.0840 ns         1 FYD      -0.494900
     14 C05          1.7430     1.1440    -1.1010 ca         1 FYD      -0.117300
     15 C06          2.8710     1.8430    -1.5810 ca         1 FYD      -0.050000
     16 C07          4.0810     1.8220    -0.8670 ca         1 FYD      -0.031900
     17 Br1          5.5960     2.7780    -1.5360 br         1 FYD      -0.077100
     18 C09          4.1840     1.1040     0.3350 ca         1 FYD      -0.040000
     19 C10          3.0710     0.4020     0.8240 ca         1 FYD      -0.036900
     20 Br2          3.2240    -0.5700     2.4700 br         1 FYD      -0.055100
     21 C12          1.8580     0.4120     0.1080 ca         1 FYD       0.158100
     22 O13          0.7760    -0.2610     0.6210 os         1 FYD      -0.366200
     23 C15         -1.0300    -1.8330     0.6270 ca         1 FYD      -0.187600
     24 C18         -3.6230    -2.4360     1.5820 ca         1 FYD      -0.035000
     25 O23          1.0240    -2.1500    -0.6230 o          1 FYD      -0.431000
     26 C24         -3.1090     1.1640    -0.4490 ca         1 FYD      -0.090600
     27 C25         -4.3950     0.5850    -0.6700 ca         1 FYD      -0.134200
     28 N26         -4.7480    -0.0990    -1.9460 no         1 FYD       0.696200
     29 O27         -4.1410    -1.1430    -2.2160 o          1 FYD      -0.388500
     30 O28         -5.7990     0.2460    -2.5010 o          1 FYD      -0.388500
     31 H1          -0.8780    -0.6070     2.4270 ha         1 FYD       0.133000
     32 H2          -3.1440    -1.1380     3.2400 ha         1 FYD       0.126000
     33 H3          -3.8380    -3.6550    -0.1620 ha         1 FYD       0.121000
     34 H4          -2.4370    -5.0470    -1.5300 h1         1 FYD       0.045700
     35 H5          -3.1440    -3.6710    -2.4180 h1         1 FYD       0.045700
     36 H6          -1.6470    -4.4300    -2.9950 h1         1 FYD       0.045700
     37 H7          -6.3490     0.1630     0.1840 ha         1 FYD       0.151000
     38 H8          -5.8440     1.2070     2.3750 ha         1 FYD       0.131000
     39 H9          -3.6100     2.2210     2.7880 ha         1 FYD       0.128000
     40 H10         -1.8970     2.2250     1.0350 ha         1 FYD       0.132000
     41 H11         -0.6080     1.4100    -0.0830 hn         1 FYD       0.327500
     42 H12          0.3540     0.2500    -2.4840 h1         1 FYD       0.069200
     43 H13          0.4840     2.0120    -2.6380 h1         1 FYD       0.069200
     44 H14          2.8110     2.4050    -2.5110 ha         1 FYD       0.138000
     45 H15          5.1220     1.0930     0.8850 ha         1 FYD       0.148000
     46 H16         -4.6230    -2.6630     1.9480 ha         1 FYD       0.115000
     47 O21         -1.4230    -3.2270    -1.3030 os         1 FYD      -0.318100
     48 C04          0.4470     1.1850    -1.9170 c3         1 FYD       0.158300
@<TRIPOS>BOND
     1     1    22 1   
     2     1    23 1   
     3     1    25 2   
     4     2     3 ar  
     5     2    23 ar  
     6     2    31 1   
     7     3    24 ar  
     8     3    32 1   
     9     4     5 ar  
    10     4    24 ar  
    11     4    33 1   
    12     5    23 ar  
    13     5    47 1   
    14     6    34 1   
    15     6    35 1   
    16     6    36 1   
    17     6    47 1   
    18     7     8 ar  
    19     7    27 ar  
    20     7    37 1   
    21     8     9 ar  
    22     8    38 1   
    23     9    10 ar  
    24     9    39 1   
    25    10    26 ar  
    26    10    40 1   
    27    11    12 2   
    28    12    13 1   
    29    12    26 1   
    30    13    41 1   
    31    13    48 1   
    32    14    15 ar  
    33    14    21 ar  
    34    14    48 1   
    35    15    16 ar  
    36    15    44 1   
    37    16    17 1   
    38    16    18 ar  
    39    18    19 ar  
    40    18    45 1   
    41    19    20 1   
    42    19    21 ar  
    43    21    22 1   
    44    24    46 1   
    45    26    27 ar  
    46    27    28 1   
    47    28    29 1   
    48    28    30 1   
    49    42    48 1   
    50    43    48 1   
@<TRIPOS>SUBSTRUCTURE
     1 FYD         1 TEMP              0 ****  ****    0 ROOT
