@<TRIPOS>MOLECULE
FYD
   48    50     1     0     0
SMALL
abcg2


@<TRIPOS>ATOM
      1 C14          0.1040    -2.0930    -0.7710 c          1 FYD       0.626700
      2 C16         -2.1990    -2.2410     0.1500 ca         1 FYD      -0.006000
      3 C17         -3.3670    -2.9310     0.4120 ca         1 FYD      -0.158000
      4 C19         -2.3740    -4.9260    -0.5140 ca         1 FYD      -0.224000
      5 C20         -1.1980    -4.2310    -0.8020 ca         1 FYD       0.203100
      6 C22         -0.1790    -6.1760    -1.7020 c3         1 FYD       0.148900
      7 C29         -5.2830     2.9690     1.3790 ca         1 FYD      -0.056000
      8 C30         -4.7730     4.0290     2.1130 ca         1 FYD      -0.103000
      9 C31         -3.4770     4.4650     1.8880 ca         1 FYD      -0.075000
     10 C32         -2.6880     3.8440     0.9280 ca         1 FYD      -0.098000
     11 O01         -2.7120     2.3310    -2.1010 o          1 FYD      -0.572100
     12 C02         -2.3410     2.2430    -0.9430 c          1 FYD       0.617700
     13 N03         -1.1530     1.7510    -0.5740 ns         1 FYD      -0.494900
     14 C05          1.1240     0.9730    -0.8880 ca         1 FYD      -0.117300
     15 C06          2.1910     1.8540    -1.0050 ca         1 FYD      -0.050000
     16 C07          3.3960     1.5700    -0.3810 ca         1 FYD      -0.031900
     17 BR1          4.8340     2.7720    -0.5540 br         1 FYD      -0.077100
     18 C09          3.5640     0.4220     0.3760 ca         1 FYD      -0.040000
     19 C10          2.4940    -0.4530     0.4940 ca         1 FYD      -0.036900
     20 BR2          2.6780    -2.0090     1.5240 br         1 FYD      -0.055100
     21 C12          1.2830    -0.1800    -0.1270 ca         1 FYD       0.158100
     22 O13          0.2170    -1.0150     0.0550 os         1 FYD      -0.366200
     23 C15         -1.1090    -2.8660    -0.4600 ca         1 FYD      -0.187600
     24 C18         -3.4420    -4.2770     0.0820 ca         1 FYD      -0.035000
     25 O23          0.9170    -2.3140    -1.6220 o          1 FYD      -0.431000
     26 C24         -3.1760     2.7770     0.1860 ca         1 FYD      -0.090600
     27 C25         -4.4800     2.3570     0.4330 ca         1 FYD      -0.134200
     28 N26         -5.0180     1.2040    -0.2730 no         1 FYD       0.696200
     29 O27         -4.2420     0.3410    -0.6080 o          1 FYD      -0.388500
     30 O28         -6.2090     1.1660    -0.4660 o          1 FYD      -0.388500
     31 H1          -2.1440    -1.1920     0.4020 ha         1 FYD       0.133000
     32 H2          -4.2070    -2.4270     0.8680 ha         1 FYD       0.126000
     33 H3          -2.4680    -5.9760    -0.7520 ha         1 FYD       0.121000
     34 H4          -0.3290    -6.8060    -0.8240 h1         1 FYD       0.045700
     35 H5          -0.9630    -6.3870    -2.4330 h1         1 FYD       0.045700
     36 H6           0.7860    -6.4110    -2.1440 h1         1 FYD       0.045700
     37 H7          -6.2880     2.6160     1.5630 ha         1 FYD       0.151000
     38 H8          -5.3900     4.5070     2.8600 ha         1 FYD       0.131000
     39 H9          -3.0760     5.2950     2.4540 ha         1 FYD       0.128000
     40 H10         -1.6870     4.2110     0.7410 ha         1 FYD       0.132000
     41 H11         -0.9330     1.6760     0.4060 hn         1 FYD       0.327500
     42 H12         -0.5770     0.4080    -2.0800 h1         1 FYD       0.069200
     43 H13         -0.0340     2.0540    -2.3080 h1         1 FYD       0.069200
     44 H14          2.0720     2.7550    -1.5920 ha         1 FYD       0.138000
     45 H15          4.5040     0.2060     0.8640 ha         1 FYD       0.148000
     46 H16         -4.3450    -4.8370     0.2890 ha         1 FYD       0.115000
     47 O21         -0.1320    -4.8000    -1.3650 os         1 FYD      -0.318100
     48 C04         -0.1890     1.2830    -1.5530 c3         1 FYD       0.158300
@<TRIPOS>BOND
     1     1    22 1   
     2     1    23 1   
     3     1    25 2   
     4     2     3 ar  
     5     2    23 ar  
     6     2    31 1   
     7     3    24 ar  
     8     3    32 1   
     9     4     5 ar  
    10     4    24 ar  
    11     4    33 1   
    12     5    23 ar  
    13     5    47 1   
    14     6    34 1   
    15     6    35 1   
    16     6    36 1   
    17     6    47 1   
    18     7     8 ar  
    19     7    27 ar  
    20     7    37 1   
    21     8     9 ar  
    22     8    38 1   
    23     9    10 ar  
    24     9    39 1   
    25    10    26 ar  
    26    10    40 1   
    27    11    12 2   
    28    12    13 1   
    29    12    26 1   
    30    13    41 1   
    31    13    48 1   
    32    14    15 ar  
    33    14    21 ar  
    34    14    48 1   
    35    15    16 ar  
    36    15    44 1   
    37    16    17 1   
    38    16    18 ar  
    39    18    19 ar  
    40    18    45 1   
    41    19    20 1   
    42    19    21 ar  
    43    21    22 1   
    44    24    46 1   
    45    26    27 ar  
    46    27    28 1   
    47    28    29 1   
    48    28    30 1   
    49    42    48 1   
    50    43    48 1   
@<TRIPOS>SUBSTRUCTURE
     1 FYD         1 TEMP              0 ****  ****    0 ROOT
