@<TRIPOS>MOLECULE
FYE
   41    43     1     0     0
SMALL
bcc


@<TRIPOS>ATOM
      1 C4          -6.1930     0.3140    -0.2760 c6         1 FYE      -0.069400
      2 C14          3.8700     2.2140     0.8630 ca         1 FYE      -0.114000
      3 C5          -5.1810    -0.5460     0.4740 c6         1 FYE      -0.084400
      4 C6          -2.8080    -1.0080     1.0500 c3         1 FYE       0.070000
      5 C11          3.3540    -0.2530    -0.3280 ca         1 FYE      -0.203600
      6 C7          -0.6520    -1.6230     0.0510 c          1 FYE       0.685300
      7 C8           0.7850    -1.2100    -0.1250 cc         1 FYE       0.050900
      8 C9           1.6700    -1.9730    -0.7860 cd         1 FYE      -0.267200
      9 C10          3.0490    -1.5520    -0.9450 c          1 FYE       0.586900
     10 C12          4.6390     0.2940    -0.3920 ca         1 FYE      -0.085000
     11 C13          4.8700     1.5070     0.2010 ca         1 FYE       0.104900
     12 C3          -5.9520     1.7990    -0.0260 c6         1 FYE      -0.074400
     13 F            6.0980     2.0400     0.1500 f          1 FYE      -0.133900
     14 C15          2.6010     1.6830     0.9310 ca         1 FYE      -0.134000
     15 C16          2.3530     0.4500     0.3340 ca         1 FYE       0.136100
     16 O2           3.8870    -2.2120    -1.5380 o          1 FYE      -0.515100
     17 O3           1.0930    -0.0340     0.4250 os         1 FYE      -0.227200
     18 O1          -1.0350    -2.6670    -0.4490 o          1 FYE      -0.560100
     19 N           -1.4060    -0.7880     0.7730 ns         1 FYE      -0.561900
     20 C           -3.7350    -0.1720     0.1520 c6         1 FYE       0.143800
     21 O           -3.5140    -0.4980    -1.2070 oh         1 FYE      -0.581800
     22 C2          -4.5190     2.1880    -0.3720 c6         1 FYE      -0.069400
     23 C1          -3.5180     1.3270     0.3920 c6         1 FYE      -0.084400
     24 H1          -6.1310     0.1090    -1.3480 hc         1 FYE       0.046450
     25 H2          -7.2030     0.0370     0.0340 hc         1 FYE       0.046450
     26 H4          -5.3330    -0.4300     1.5520 hc         1 FYE       0.043700
     27 H5          -5.3390    -1.6060     0.2520 hc         1 FYE       0.043700
     28 H6          -3.0290    -2.0680     0.9230 h1         1 FYE       0.068200
     29 H7          -2.9870    -0.7580     2.0980 h1         1 FYE       0.068200
     30 H8           1.3500    -2.9150    -1.2060 ha         1 FYE       0.191000
     31 H9           5.4310    -0.2360    -0.9030 ha         1 FYE       0.177000
     32 H10         -6.6590     2.4000    -0.6030 hc         1 FYE       0.038700
     33 H11         -6.1420     2.0250     1.0290 hc         1 FYE       0.038700
     34 H12          1.8080     2.2130     1.4410 ha         1 FYE       0.154000
     35 H13         -0.9770     0.0250     1.1850 hn         1 FYE       0.328500
     36 H14         -2.6910    -0.0900    -1.4960 ho         1 FYE       0.404000
     37 H15         -4.3580     2.0810    -1.4480 hc         1 FYE       0.046450
     38 H16         -4.3450     3.2410    -0.1390 hc         1 FYE       0.046450
     39 H17         -3.6100     1.5300     1.4640 hc         1 FYE       0.043700
     40 H18         -2.4970     1.6100     0.1140 hc         1 FYE       0.043700
     41 H3           4.0900     3.1700     1.3190 ha         1 FYE       0.158000
@<TRIPOS>BOND
     1     1     3 1   
     2     1    12 1   
     3     1    24 1   
     4     1    25 1   
     5     2    11 ar  
     6     2    14 ar  
     7     2    41 1   
     8     3    20 1   
     9     3    26 1   
    10     3    27 1   
    11     4    19 1   
    12     4    20 1   
    13     4    28 1   
    14     4    29 1   
    15     5     9 1   
    16     5    10 ar  
    17     5    15 ar  
    18     6     7 1   
    19     6    18 2   
    20     6    19 1   
    21     7     8 2   
    22     7    17 1   
    23     8     9 1   
    24     8    30 1   
    25     9    16 2   
    26    10    11 ar  
    27    10    31 1   
    28    11    13 1   
    29    12    22 1   
    30    12    32 1   
    31    12    33 1   
    32    14    15 ar  
    33    14    34 1   
    34    15    17 1   
    35    19    35 1   
    36    20    21 1   
    37    20    23 1   
    38    21    36 1   
    39    22    23 1   
    40    22    37 1   
    41    22    38 1   
    42    23    39 1   
    43    23    40 1   
@<TRIPOS>SUBSTRUCTURE
     1 FYE         1 TEMP              0 ****  ****    0 ROOT
