@<TRIPOS>MOLECULE
FYE
   41    43     1     0     0
SMALL
No Charge or Current Charge


@<TRIPOS>ATOM
      1 C4          -6.3930     0.2320     0.0180 c6         1 FYE      -0.069400
      2 C14          4.3560     1.8310     1.4930 ca         1 FYE      -0.096000
      3 C5          -5.2920    -0.4020     0.9100 c6         1 FYE      -0.084400
      4 C6          -2.8100    -0.8890     1.2780 c3         1 FYE       0.070000
      5 C11          3.4240     0.0070    -0.4360 ca         1 FYE      -0.203600
      6 C7          -0.7280    -1.2390    -0.1380 c          1 FYE       0.618300
      7 C8           0.7030    -0.8200    -0.2510 cc         1 FYE       0.050900
      8 C9           1.5200    -1.3070    -1.2600 cd         1 FYE      -0.317200
      9 C10          2.9120    -0.9470    -1.4360 c          1 FYE       0.586900
     10 C12          4.7640     0.4590    -0.4720 ca         1 FYE      -0.067000
     11 C13          5.2220     1.3680     0.4930 ca         1 FYE       0.140000
     12 C3          -6.0470     1.6980    -0.3380 c6         1 FYE      -0.074400
     13 F            6.5030     1.7990     0.4580 f          1 FYE      -0.169000
     14 C15          3.0240     1.3800     1.5250 ca         1 FYE      -0.116000
     15 C16          2.5480     0.4670     0.5640 ca         1 FYE       0.136100
     16 O2           3.6010    -1.4000    -2.3400 o          1 FYE      -0.515100
     17 O3           1.2180     0.0820     0.6820 os         1 FYE      -0.227200
     18 O1          -1.2860    -2.0180    -0.9000 o          1 FYE      -0.560100
     19 N           -1.3960    -0.6580     0.9190 ns         1 FYE      -0.494900
     20 C           -3.8730    -0.3250     0.2670 c6         1 FYE       0.167000
     21 O           -3.8520    -1.1460    -0.9080 oh         1 FYE      -0.644000
     22 C2          -4.6570     1.7920    -1.0110 c6         1 FYE      -0.069400
     23 C1          -3.5550     1.1540    -0.1230 c6         1 FYE      -0.084400
     24 H1          -6.5150    -0.3550    -0.9030 hc         1 FYE       0.046450
     25 H2          -7.3590     0.1950     0.5390 hc         1 FYE       0.046450
     26 H4          -5.2840     0.1120     1.8810 hc         1 FYE       0.043700
     27 H5          -5.5510    -1.4480     1.1230 hc         1 FYE       0.043700
     28 H6          -2.9740    -1.9670     1.4080 h1         1 FYE       0.068200
     29 H7          -2.9810    -0.4170     2.2540 h1         1 FYE       0.068200
     30 H8           1.1520    -2.0090    -2.0000 ha         1 FYE       0.241000
     31 H9           5.4490     0.1100    -1.2410 ha         1 FYE       0.159000
     32 H10         -6.8140     2.1110    -1.0060 hc         1 FYE       0.038700
     33 H11         -6.0600     2.3130     0.5730 hc         1 FYE       0.038700
     34 H12          2.3530     1.7390     2.3010 ha         1 FYE       0.136000
     35 H13         -0.8470    -0.0270     1.4920 hn         1 FYE       0.328500
     36 H14         -2.9300    -1.5020    -0.9740 ho         1 FYE       0.443000
     37 H15         -4.6850     1.2920    -1.9890 hc         1 FYE       0.046450
     38 H16         -4.4110     2.8440    -1.2090 hc         1 FYE       0.046450
     39 H17         -3.4390     1.7550     0.7900 hc         1 FYE       0.043700
     40 H18         -2.5930     1.2130    -0.6500 hc         1 FYE       0.043700
     41 H3           4.7150     2.5360     2.2390 ha         1 FYE       0.140000
@<TRIPOS>BOND
     1     1     3 1   
     2     1    12 1   
     3     1    24 1   
     4     1    25 1   
     5     2    11 ar  
     6     2    14 ar  
     7     2    41 1   
     8     3    20 1   
     9     3    26 1   
    10     3    27 1   
    11     4    19 1   
    12     4    20 1   
    13     4    28 1   
    14     4    29 1   
    15     5     9 1   
    16     5    10 ar  
    17     5    15 ar  
    18     6     7 1   
    19     6    18 2   
    20     6    19 1   
    21     7     8 2   
    22     7    17 1   
    23     8     9 1   
    24     8    30 1   
    25     9    16 2   
    26    10    11 ar  
    27    10    31 1   
    28    11    13 1   
    29    12    22 1   
    30    12    32 1   
    31    12    33 1   
    32    14    15 ar  
    33    14    34 1   
    34    15    17 1   
    35    19    35 1   
    36    20    21 1   
    37    20    23 1   
    38    21    36 1   
    39    22    23 1   
    40    22    37 1   
    41    22    38 1   
    42    23    39 1   
    43    23    40 1   
@<TRIPOS>SUBSTRUCTURE
     1 FYE         1 TEMP              0 ****  ****    0 ROOT
