@<TRIPOS>MOLECULE
FYF
   35    37     1     0     0
SMALL
abcg2


@<TRIPOS>ATOM
      1 C1         -10.1400     8.9840   -11.3280 ca         1 FYF      -0.115500
      2 C2         -10.6130     8.0040   -12.1880 ca         1 FYF      -0.086000
      3 C3         -10.9580     6.7560   -11.6850 ca         1 FYF      -0.115500
      4 C4         -10.8300     6.4910   -10.3330 ca         1 FYF      -0.073500
      5 C5         -10.3530     7.4730    -9.4620 ca         1 FYF      -0.154500
      6 C6         -10.0090     8.7250    -9.9730 ca         1 FYF      -0.073500
      7 C7         -10.2260     7.1690    -8.0440 cc         1 FYF       0.249500
      8 C8         -10.4730     6.0530    -7.3090 cd         1 FYF      -0.230000
      9 C9         -10.1380     6.4430    -5.9920 cd         1 FYF       0.241300
     10 N10         -9.7210     7.6740    -5.9530 nc         1 FYF      -0.350300
     11 O11         -9.7800     8.1320    -7.2310 os         1 FYF      -0.063700
     12 C12        -10.2010     5.6240    -4.7470 c3         1 FYF       0.037300
     13 N13         -9.5300     4.3560    -4.9090 na         1 FYF      -0.158500
     14 C14        -10.1380     3.1290    -5.0030 cc         1 FYF      -0.230000
     15 C15         -9.1250     2.2290    -5.1450 cd         1 FYF       0.243900
     16 N16         -7.9250     2.8730    -5.1480 nd         1 FYF      -0.689000
     17 C17         -8.1950     4.1430    -5.0070 cc         1 FYF       0.370800
     18 C18         -7.1200     5.1920    -4.9800 c3         1 FYF       0.157000
     19 O19         -6.0600     4.7610    -4.1680 oh         1 FYF      -0.651000
     20 C20         -6.6520     5.5150    -6.3960 c3         1 FYF      -0.120100
     21 H1          -9.8680     9.9580   -11.7110 ha         1 FYF       0.119500
     22 H2         -10.7130     8.2090   -13.2450 ha         1 FYF       0.118000
     23 H3         -11.3280     5.9850   -12.3480 ha         1 FYF       0.119500
     24 H4         -11.1070     5.5140    -9.9590 ha         1 FYF       0.124500
     25 H5          -9.6380     9.5050    -9.3220 ha         1 FYF       0.124500
     26 H6         -10.8310     5.0940    -7.6390 ha         1 FYF       0.160000
     27 H7          -9.7720     6.1780    -3.9120 h1         1 FYF       0.083700
     28 H8         -11.2410     5.4250    -4.4860 h1         1 FYF       0.083700
     29 H9         -11.2070     3.0150    -4.9460 h4         1 FYF       0.157000
     30 H10         -9.1980     1.1580    -5.2400 h4         1 FYF       0.040100
     31 H11         -7.5070     6.1100    -4.5240 h1         1 FYF       0.072700
     32 H12         -5.9300     3.8220    -4.3440 ho         1 FYF       0.468000
     33 H13         -5.8540     6.2560    -6.3710 hc         1 FYF       0.047033
     34 H14         -6.2800     4.6170    -6.8900 hc         1 FYF       0.047033
     35 H15         -7.4650     5.9130    -7.0050 hc         1 FYF       0.047033
@<TRIPOS>BOND
     1     1     2 ar  
     2     1     6 ar  
     3     1    21 1   
     4     2     3 ar  
     5     2    22 1   
     6     3     4 ar  
     7     3    23 1   
     8     4     5 ar  
     9     4    24 1   
    10     5     6 ar  
    11     5     7 1   
    12     6    25 1   
    13     7     8 2   
    14     7    11 1   
    15     8     9 1   
    16     8    26 1   
    17     9    10 2   
    18     9    12 1   
    19    10    11 1   
    20    12    13 1   
    21    12    27 1   
    22    12    28 1   
    23    13    14 1   
    24    13    17 1   
    25    14    15 2   
    26    14    29 1   
    27    15    16 1   
    28    15    30 1   
    29    16    17 2   
    30    17    18 1   
    31    18    19 1   
    32    18    20 1   
    33    18    31 1   
    34    19    32 1   
    35    20    33 1   
    36    20    34 1   
    37    20    35 1   
@<TRIPOS>SUBSTRUCTURE
     1 FYF         1 TEMP              0 ****  ****    0 ROOT
