@<TRIPOS>MOLECULE
FYF
   35    37     1     0     0
SMALL
No Charge or Current Charge


@<TRIPOS>ATOM
      1 C1         -10.1360     8.9510   -11.4030 ca         1 FYF      -0.115500
      2 C2         -10.6120     7.9140   -12.2210 ca         1 FYF      -0.086000
      3 C3         -10.9550     6.6790   -11.6500 ca         1 FYF      -0.115500
      4 C4         -10.8230     6.4780   -10.2640 ca         1 FYF      -0.073500
      5 C5         -10.3440     7.5150    -9.4310 ca         1 FYF      -0.154500
      6 C6         -10.0030     8.7540   -10.0180 ca         1 FYF      -0.073500
      7 C7         -10.1960     7.3300    -7.9810 cc         1 FYF       0.249500
      8 C8         -10.4540     6.2000    -7.2740 cd         1 FYF      -0.230000
      9 C9         -10.1390     6.5220    -5.9410 cd         1 FYF       0.241300
     10 N10         -9.7100     7.7680    -5.8010 nc         1 FYF      -0.350300
     11 O11         -9.7420     8.3140    -7.1400 os         1 FYF      -0.063700
     12 C12        -10.2330     5.5980    -4.7550 c3         1 FYF       0.037300
     13 N13         -9.5500     4.3020    -4.9380 na         1 FYF      -0.158500
     14 C14        -10.1690     3.0740    -5.0330 cc         1 FYF      -0.230000
     15 C15         -9.1610     2.1570    -5.1730 cd         1 FYF       0.243900
     16 N16         -7.9320     2.7830    -5.1710 nd         1 FYF      -0.689000
     17 C17         -8.1850     4.0800    -5.0410 cc         1 FYF       0.370800
     18 C18         -7.1020     5.1570    -4.9820 c3         1 FYF       0.157000
     19 O19         -5.9450     4.6880    -4.2640 oh         1 FYF      -0.651000
     20 C20         -6.6430     5.6060    -6.3850 c3         1 FYF      -0.120100
     21 H1          -9.8700     9.9100   -11.8430 ha         1 FYF       0.119500
     22 H2         -10.7160     8.0680   -13.2930 ha         1 FYF       0.118000
     23 H3         -11.3240     5.8740   -12.2810 ha         1 FYF       0.119500
     24 H4         -11.0970     5.5110    -9.8510 ha         1 FYF       0.124500
     25 H5          -9.6320     9.5720    -9.4030 ha         1 FYF       0.124500
     26 H6         -10.8140     5.2480    -7.6420 ha         1 FYF       0.160000
     27 H7          -9.8140     6.0940    -3.8710 h1         1 FYF       0.083700
     28 H8         -11.2940     5.4110    -4.5490 h1         1 FYF       0.083700
     29 H9         -11.2430     2.9400    -4.9910 h4         1 FYF       0.157000
     30 H10         -9.2520     1.0820    -5.2730 h4         1 FYF       0.040100
     31 H11         -7.5160     6.0350    -4.4690 h1         1 FYF       0.072700
     32 H12         -5.9360     3.7110    -4.3970 ho         1 FYF       0.468000
     33 H13         -5.8940     6.4030    -6.3100 hc         1 FYF       0.047033
     34 H14         -6.2020     4.7680    -6.9390 hc         1 FYF       0.047033
     35 H15         -7.4890     5.9890    -6.9660 hc         1 FYF       0.047033
@<TRIPOS>BOND
     1     1     2 ar  
     2     1     6 ar  
     3     1    21 1   
     4     2     3 ar  
     5     2    22 1   
     6     3     4 ar  
     7     3    23 1   
     8     4     5 ar  
     9     4    24 1   
    10     5     6 ar  
    11     5     7 1   
    12     6    25 1   
    13     7     8 2   
    14     7    11 1   
    15     8     9 1   
    16     8    26 1   
    17     9    10 2   
    18     9    12 1   
    19    10    11 1   
    20    12    13 1   
    21    12    27 1   
    22    12    28 1   
    23    13    14 1   
    24    13    17 1   
    25    14    15 2   
    26    14    29 1   
    27    15    16 1   
    28    15    30 1   
    29    16    17 2   
    30    17    18 1   
    31    18    19 1   
    32    18    20 1   
    33    18    31 1   
    34    19    32 1   
    35    20    33 1   
    36    20    34 1   
    37    20    35 1   
@<TRIPOS>SUBSTRUCTURE
     1 FYF         1 TEMP              0 ****  ****    0 ROOT
