@<TRIPOS>MOLECULE
FYH
   46    48     1     0     0
SMALL
No Charge or Current Charge


@<TRIPOS>ATOM
      1 C2           7.0390    -0.8680     0.6040 c3         1 FYH       0.524000
      2 C41         -7.0270    -2.7900     0.1460 c6         1 FYH       0.153100
      3 C44         -6.6980    -1.6940    -0.9110 c6         1 FYH       0.126300
      4 C11          2.1790     0.9250     0.0950 ca         1 FYH      -0.031000
      5 C12          2.7510    -0.3480    -0.1240 ca         1 FYH      -0.120500
      6 C14          4.1250    -0.5630     0.0960 ca         1 FYH      -0.109500
      7 C18         -0.2880     0.4330    -0.4710 c          1 FYH       0.621700
      8 C20         -1.6160     1.1620    -0.5910 ca         1 FYH      -0.162600
      9 C21         -2.7760     0.4320    -0.9440 ca         1 FYH      -0.034000
     10 C23         -4.0270     1.0670    -1.0650 ca         1 FYH      -0.093300
     11 C24         -4.1280     2.4500    -0.8310 ca         1 FYH      -0.085000
     12 C26         -2.9880     3.1890    -0.4810 ca         1 FYH      -0.119000
     13 C28         -1.7390     2.5550    -0.3610 ca         1 FYH      -0.088000
     14 C30         -5.2600     0.2530    -1.4440 c3         1 FYH       0.214100
     15 F1           8.3430    -0.6920     0.9120 f          1 FYH      -0.106667
     16 F3           6.9950    -1.3130    -0.6740 f          1 FYH      -0.106667
     17 F4           6.5760    -1.8540     1.4050 f          1 FYH      -0.106667
     18 O5           6.3060     0.3620     0.7760 os         1 FYH      -0.407100
     19 C6           4.9500     0.4960     0.5390 ca         1 FYH       0.112100
     20 C7           4.3800     1.7600     0.7530 ca         1 FYH      -0.109500
     21 C9           3.0080     1.9740     0.5330 ca         1 FYH      -0.120500
     22 O19         -0.2070    -0.7720    -0.6840 o          1 FYH      -0.572100
     23 N33         -5.6030    -0.7870    -0.4460 n3         1 FYH      -0.718600
     24 C34         -5.9170    -0.2310     0.9100 c6         1 FYH       0.126300
     25 C37         -6.2650    -1.3580     1.9280 c6         1 FYH       0.153100
     26 O40         -7.3440    -2.1810     1.4210 os         1 FYH      -0.450000
     27 H2          -6.1670    -3.4640     0.2690 h1         1 FYH       0.052450
     28 H3          -6.4120    -2.1870    -1.8520 h1         1 FYH       0.041950
     29 H4          -7.6110    -1.1160    -1.1140 h1         1 FYH       0.041950
     30 H5           2.1540    -1.1860    -0.4680 ha         1 FYH       0.134000
     31 H6           4.5230    -1.5560    -0.0840 ha         1 FYH       0.135500
     32 H7          -2.7150    -0.6400    -1.1220 ha         1 FYH       0.151000
     33 H8          -5.0890     2.9530    -0.9180 ha         1 FYH       0.115000
     34 H9          -3.0710     4.2580    -0.3010 ha         1 FYH       0.118000
     35 H10         -0.8820     3.1650    -0.0880 ha         1 FYH       0.113000
     36 H11         -6.1130     0.9310    -1.5860 h1         1 FYH       0.042700
     37 H12         -5.0650    -0.2180    -2.4170 h1         1 FYH       0.042700
     38 H13          5.0080     2.5800     1.0920 ha         1 FYH       0.135500
     39 H14          2.5910     2.9640     0.7060 ha         1 FYH       0.134000
     40 H17         -5.0630     0.3400     1.3020 h1         1 FYH       0.041950
     41 H18         -6.7680     0.4630     0.8490 h1         1 FYH       0.041950
     42 H19         -5.3820    -1.9870     2.1070 h1         1 FYH       0.052450
     43 H20         -6.5700    -0.9150     2.8870 h1         1 FYH       0.052450
     44 N16          0.8000     1.2200    -0.1070 ns         1 FYH      -0.145000
     45 H1          -7.8860    -3.3890    -0.1900 h1         1 FYH       0.052450
     46 H15          0.5700     2.1920     0.0430 hn         1 FYH       0.155000
@<TRIPOS>BOND
     1     1    15 1   
     2     1    16 1   
     3     1    17 1   
     4     1    18 1   
     5     2     3 1   
     6     2    26 1   
     7     2    27 1   
     8     2    45 1   
     9     3    23 1   
    10     3    28 1   
    11     3    29 1   
    12     4     5 ar  
    13     4    21 ar  
    14     4    44 1   
    15     5     6 ar  
    16     5    30 1   
    17     6    19 ar  
    18     6    31 1   
    19     7     8 1   
    20     7    22 2   
    21     7    44 1   
    22     8     9 ar  
    23     8    13 ar  
    24     9    10 ar  
    25     9    32 1   
    26    10    11 ar  
    27    10    14 1   
    28    11    12 ar  
    29    11    33 1   
    30    12    13 ar  
    31    12    34 1   
    32    13    35 1   
    33    14    23 1   
    34    14    36 1   
    35    14    37 1   
    36    18    19 1   
    37    19    20 ar  
    38    20    21 ar  
    39    20    38 1   
    40    21    39 1   
    41    23    24 1   
    42    24    25 1   
    43    24    40 1   
    44    24    41 1   
    45    25    26 1   
    46    25    42 1   
    47    25    43 1   
    48    44    46 1   
@<TRIPOS>SUBSTRUCTURE
     1 FYH         1 TEMP              0 ****  ****    0 ROOT
