@<TRIPOS>MOLECULE
FYH
   46    48     1     0     0
SMALL
bcc


@<TRIPOS>ATOM
      1 C2           6.5860    -0.9760     0.7440 c3         1 FYH       0.864700
      2 C41         -6.3860    -2.7870     0.4150 c6         1 FYH       0.129900
      3 C44         -6.4260    -1.6730    -0.6140 c6         1 FYH       0.126300
      4 C11          1.8810     0.8640     0.1580 ca         1 FYH       0.061600
      5 C12          2.5470    -0.1620    -0.5070 ca         1 FYH      -0.138500
      6 C14          3.8580    -0.4870    -0.1810 ca         1 FYH      -0.127500
      7 C18         -0.3990     0.5730    -0.7670 c          1 FYH       0.688700
      8 C20         -1.6840     1.3100    -0.9530 ca         1 FYH      -0.162600
      9 C21         -2.8560     0.5630    -1.0310 ca         1 FYH      -0.052000
     10 C23         -4.0870     1.1810    -1.2160 ca         1 FYH      -0.093300
     11 C24         -4.1290     2.5650    -1.3410 ca         1 FYH      -0.103000
     12 C26         -2.9640     3.3180    -1.2880 ca         1 FYH      -0.137000
     13 C28         -1.7410     2.6970    -1.0900 ca         1 FYH      -0.106000
     14 C30         -5.3460     0.3570    -1.3120 c3         1 FYH       0.214100
     15 F1           7.7490    -0.9100     1.3720 f          1 FYH      -0.227967
     16 F3           6.8170    -0.8560    -0.5650 f          1 FYH      -0.227967
     17 F4           6.0730    -2.1900     0.9460 f          1 FYH      -0.227967
     18 O5           5.8170     0.0020     1.2280 os         1 FYH      -0.383900
     19 C6           4.5140     0.2160     0.8140 ca         1 FYH       0.112100
     20 C7           3.8660     1.2440     1.4830 ca         1 FYH      -0.127500
     21 C9           2.5630     1.5610     1.1570 ca         1 FYH      -0.138500
     22 O19         -0.2620    -0.5740    -1.1540 o          1 FYH      -0.572100
     23 N33         -5.3850    -0.7030    -0.3310 n3         1 FYH      -0.718600
     24 C34         -5.5380    -0.1920     1.0200 c6         1 FYH       0.126300
     25 C37         -5.5220    -1.3370     2.0120 c6         1 FYH       0.129900
     26 O40         -6.5260    -2.2860     1.7270 os         1 FYH      -0.403600
     27 H2          -5.4410    -3.3400     0.3160 h1         1 FYH       0.052450
     28 H3          -6.2640    -2.1000    -1.6070 h1         1 FYH       0.041950
     29 H4          -7.4290    -1.2120    -0.6190 h1         1 FYH       0.041950
     30 H5           2.0670    -0.7220    -1.2930 ha         1 FYH       0.152000
     31 H6           4.3200    -1.2890    -0.7390 ha         1 FYH       0.153500
     32 H7          -2.8170    -0.5130    -0.9260 ha         1 FYH       0.169000
     33 H8          -5.0820     3.0620    -1.4830 ha         1 FYH       0.133000
     34 H9          -3.0090     4.3930    -1.3990 ha         1 FYH       0.136000
     35 H10         -0.8430     3.3020    -1.0700 ha         1 FYH       0.131000
     36 H11         -6.2220     1.0230    -1.2420 h1         1 FYH       0.042700
     37 H12         -5.3900    -0.1010    -2.3060 h1         1 FYH       0.042700
     38 H13          4.3790     1.7950     2.2610 ha         1 FYH       0.153500
     39 H14          2.0700     2.3650     1.6910 ha         1 FYH       0.152000
     40 H17         -4.7150     0.4880     1.2520 h1         1 FYH       0.041950
     41 H18         -6.4730     0.3850     1.1260 h1         1 FYH       0.041950
     42 H19         -4.5300    -1.8130     1.9980 h1         1 FYH       0.052450
     43 H20         -5.7020    -0.9630     3.0210 h1         1 FYH       0.052450
     44 N16          0.5770     1.2740    -0.1340 ns         1 FYH      -0.471100
     45 H1          -7.2050    -3.4870     0.2440 h1         1 FYH       0.052450
     46 H15          0.3080     2.1520     0.2840 hn         1 FYH       0.321500
@<TRIPOS>BOND
     1     1    15 1   
     2     1    16 1   
     3     1    17 1   
     4     1    18 1   
     5     2     3 1   
     6     2    26 1   
     7     2    27 1   
     8     2    45 1   
     9     3    23 1   
    10     3    28 1   
    11     3    29 1   
    12     4     5 ar  
    13     4    21 ar  
    14     4    44 1   
    15     5     6 ar  
    16     5    30 1   
    17     6    19 ar  
    18     6    31 1   
    19     7     8 1   
    20     7    22 2   
    21     7    44 1   
    22     8     9 ar  
    23     8    13 ar  
    24     9    10 ar  
    25     9    32 1   
    26    10    11 ar  
    27    10    14 1   
    28    11    12 ar  
    29    11    33 1   
    30    12    13 ar  
    31    12    34 1   
    32    13    35 1   
    33    14    23 1   
    34    14    36 1   
    35    14    37 1   
    36    18    19 1   
    37    19    20 ar  
    38    20    21 ar  
    39    20    38 1   
    40    21    39 1   
    41    23    24 1   
    42    24    25 1   
    43    24    40 1   
    44    24    41 1   
    45    25    26 1   
    46    25    42 1   
    47    25    43 1   
    48    44    46 1   
@<TRIPOS>SUBSTRUCTURE
     1 FYH         1 TEMP              0 ****  ****    0 ROOT
