@<TRIPOS>MOLECULE
FYI
   69    69     1     0     0
SMALL
abcg2


@<TRIPOS>ATOM
      1 C1          -4.1980    -1.2420     0.5090 ca         1 FYI      -0.095500
      2 C2          -5.4240    -1.1060    -0.1250 ca         1 FYI      -0.186000
      3 C3          -5.8920     0.1530    -0.5080 ca         1 FYI       0.300100
      4 C4          -5.1170     1.2690    -0.1870 ca         1 FYI      -0.186000
      5 C5          -3.8910     1.1200     0.4470 ca         1 FYI      -0.095500
      6 C6          -3.4040    -0.1360     0.8040 ca         1 FYI      -0.225300
      7 O1          -7.0310     0.2820    -1.1990 os         1 FYI      -0.437500
      8 P1          -8.5250     0.5680    -0.3350 p5         1 FYI       1.251900
      9 O2          -9.4770     0.6880    -1.5120 o          1 FYI      -0.899167
     10 O3          -8.6890    -0.6760     0.5220 o          1 FYI      -0.899167
     11 O4          -8.2630     1.8500     0.4370 o          1 FYI      -0.899167
     12 C7          -2.0490    -0.2910     1.4370 c3         1 FYI       0.012900
     13 C8          -0.9790    -0.7270     0.4270 c3         1 FYI      -0.110700
     14 C9           0.3710    -0.9360     1.1100 c          1 FYI       0.602100
     15 O5           0.5300    -0.8320     2.3160 o          1 FYI      -0.601100
     16 C10         -0.8430     0.2060    -0.7910 c3         1 FYI      -0.160400
     17 C11         -0.0250     1.4490    -0.5100 c          1 FYI       0.592100
     18 N1           0.9050     1.7410    -1.4290 ns         1 FYI      -0.515900
     19 C12          1.8140     2.8540    -1.2980 c3         1 FYI       0.100300
     20 O7          -0.2090     2.1420     0.4830 o          1 FYI      -0.591100
     21 N2           1.3790    -1.2440     0.2680 ns         1 FYI      -0.519900
     22 C13          2.7660    -1.3150     0.6560 c3         1 FYI       0.047700
     23 C14          3.5600    -0.4930    -0.3540 c          1 FYI       0.601100
     24 O8           3.2830    -0.4880    -1.5440 o          1 FYI      -0.622100
     25 C15          3.2730    -2.7710     0.7600 c3         1 FYI      -0.067700
     26 C16          4.6950    -2.8670     1.3200 c3         1 FYI      -0.085400
     27 C17          3.1630    -3.5310    -0.5570 c3         1 FYI      -0.088100
     28 C18          4.8640    -2.3450     2.7410 c3         1 FYI      -0.089100
     29 N3           4.5770     0.2290     0.1380 ns         1 FYI      -0.491900
     30 C19          5.4170     1.0160    -0.7270 c3         1 FYI       0.048700
     31 C20          6.1510     0.1230    -1.7320 c          1 FYI       0.600100
     32 O10          6.5370    -0.9940    -1.4330 o          1 FYI      -0.604100
     33 C21          6.4470     1.7720     0.1070 c3         1 FYI      -0.179400
     34 C22          5.7800     2.7680     1.0410 c          1 FYI       0.600100
     35 O11          4.9380     3.5560     0.6380 o          1 FYI      -0.584100
     36 N4           6.1850     2.7040     2.3150 nt         1 FYI      -0.608000
     37 N5           6.3730     0.7030    -2.9160 nt         1 FYI      -0.603000
     38 H1          -3.8530    -2.2340     0.7840 ha         1 FYI       0.069500
     39 H2          -6.0220    -1.9820    -0.3450 ha         1 FYI       0.124000
     40 H3          -5.4720     2.2550    -0.4570 ha         1 FYI       0.124000
     41 H4          -3.2930     1.9990     0.6610 ha         1 FYI       0.069500
     42 H7          -1.7520     0.6460     1.9050 hc         1 FYI       0.049700
     43 H8          -2.0990    -1.0400     2.2290 hc         1 FYI       0.049700
     44 H9          -1.2830    -1.7020     0.0280 hc         1 FYI       0.063700
     45 H11         -0.4370    -0.3400    -1.6450 hc         1 FYI       0.074200
     46 H12         -1.8410     0.5240    -1.1050 hc         1 FYI       0.074200
     47 H13          1.0790     1.0810    -2.1670 hn         1 FYI       0.311500
     48 H14          1.2760     3.7960    -1.1980 h1         1 FYI       0.031033
     49 H15          2.4790     2.7450    -0.4400 h1         1 FYI       0.031033
     50 H16          2.4230     2.9050    -2.1960 h1         1 FYI       0.031033
     51 H17          1.1860    -1.3390    -0.7160 hn         1 FYI       0.326500
     52 H19          2.8460    -0.8560     1.6430 h1         1 FYI       0.086700
     53 H20          2.6000    -3.2480     1.4820 hc         1 FYI       0.066700
     54 H21          4.9760    -3.9240     1.3100 hc         1 FYI       0.046700
     55 H22          5.3990    -2.3710     0.6450 hc         1 FYI       0.046700
     56 H23          3.8460    -3.1400    -1.3120 hc         1 FYI       0.038367
     57 H24          3.4170    -4.5800    -0.3980 hc         1 FYI       0.038367
     58 H25          2.1530    -3.5030    -0.9670 hc         1 FYI       0.038367
     59 H26          5.8800    -2.5170     3.0960 hc         1 FYI       0.027700
     60 H27          4.6740    -1.2740     2.8400 hc         1 FYI       0.027700
     61 H28          4.1850    -2.8520     3.4300 hc         1 FYI       0.027700
     62 H30          4.7820     0.1950     1.1230 hn         1 FYI       0.326500
     63 H32          4.7990     1.7440    -1.2620 h1         1 FYI       0.089700
     64 H33          7.0790     1.0660     0.6500 hc         1 FYI       0.067200
     65 H34          7.1010     2.3350    -0.5630 hc         1 FYI       0.067200
     66 H35          6.9160     2.0790     2.6100 hn         1 FYI       0.315000
     67 H36          5.8400     3.3640     2.9940 hn         1 FYI       0.315000
     68 H38          6.0180     1.6180    -3.1370 hn         1 FYI       0.314000
     69 H39          6.9170     0.2360    -3.6230 hn         1 FYI       0.314000
@<TRIPOS>BOND
     1     1     2 ar  
     2     1     6 ar  
     3     1    38 1   
     4     2     3 ar  
     5     2    39 1   
     6     3     4 ar  
     7     3     7 1   
     8     4     5 ar  
     9     4    40 1   
    10     5     6 ar  
    11     5    41 1   
    12     6    12 1   
    13     7     8 1   
    14     8     9 1   
    15     8    10 1   
    16     8    11 1   
    17    12    13 1   
    18    12    42 1   
    19    12    43 1   
    20    13    14 1   
    21    13    16 1   
    22    13    44 1   
    23    14    15 2   
    24    14    21 1   
    25    16    17 1   
    26    16    45 1   
    27    16    46 1   
    28    17    18 1   
    29    17    20 2   
    30    18    19 1   
    31    18    47 1   
    32    19    48 1   
    33    19    49 1   
    34    19    50 1   
    35    21    22 1   
    36    21    51 1   
    37    22    23 1   
    38    22    25 1   
    39    22    52 1   
    40    23    24 2   
    41    23    29 1   
    42    25    26 1   
    43    25    27 1   
    44    25    53 1   
    45    26    28 1   
    46    26    54 1   
    47    26    55 1   
    48    27    56 1   
    49    27    57 1   
    50    27    58 1   
    51    28    59 1   
    52    28    60 1   
    53    28    61 1   
    54    29    30 1   
    55    29    62 1   
    56    30    31 1   
    57    30    33 1   
    58    30    63 1   
    59    31    32 2   
    60    31    37 1   
    61    33    34 1   
    62    33    64 1   
    63    33    65 1   
    64    34    35 2   
    65    34    36 1   
    66    36    66 1   
    67    36    67 1   
    68    37    68 1   
    69    37    69 1   
@<TRIPOS>SUBSTRUCTURE
     1 FYI         1 TEMP              0 ****  ****    0 ROOT
