@<TRIPOS>MOLECULE
FYI
   69    69     1     0     0
SMALL
No Charge or Current Charge


@<TRIPOS>ATOM
      1 C1          -3.5860    -1.4220     0.4530 ca         1 FYI      -0.095500
      2 C2          -4.9350    -1.5510     0.0820 ca         1 FYI      -0.186000
      3 C3          -5.8270    -0.4760     0.2360 ca         1 FYI       0.300100
      4 C4          -5.3510     0.7400     0.7710 ca         1 FYI      -0.186000
      5 C5          -4.0010     0.8710     1.1430 ca         1 FYI      -0.095500
      6 C6          -3.1110    -0.2080     0.9830 ca         1 FYI      -0.225300
      7 O1          -7.1310    -0.6740    -0.1460 os         1 FYI      -0.437500
      8 P1          -8.3630     0.3640    -0.0760 p5         1 FYI       1.251900
      9 O2          -9.5870    -0.3060    -0.5990 o          1 FYI      -0.899167
     10 O3          -8.6020     0.7800     1.3340 o          1 FYI      -0.899167
     11 O4          -8.0720     1.5630    -0.9100 o          1 FYI      -0.899167
     12 C7          -1.6440    -0.0690     1.3870 c3         1 FYI       0.012900
     13 C8          -0.6750    -0.0580     0.1740 c3         1 FYI      -0.110700
     14 C9           0.7900    -0.1830     0.6400 c          1 FYI       0.602100
     15 O5           1.3310     0.6400     1.3640 o          1 FYI      -0.601100
     16 C10         -0.8680     1.1390    -0.8130 c3         1 FYI      -0.160400
     17 C11         -0.5580     2.5220    -0.2150 c          1 FYI       0.592100
     18 N1           0.5980     3.1110    -0.6780 ns         1 FYI      -0.515900
     19 C12          1.0510     4.4470    -0.2920 c3         1 FYI       0.100300
     20 O7          -1.3060     3.0960     0.5630 o          1 FYI      -0.591100
     21 N2           1.4610    -1.2920     0.1770 ns         1 FYI      -0.519900
     22 C13          2.8950    -1.5620     0.4250 c3         1 FYI       0.047700
     23 C14          3.7720    -0.7190    -0.5560 c          1 FYI       0.601100
     24 O8           3.3580    -0.2900    -1.6270 o          1 FYI      -0.622100
     25 C15          3.1720    -3.1000     0.3580 c3         1 FYI      -0.067700
     26 C16          4.5660    -3.5270     0.9000 c3         1 FYI      -0.085400
     27 C17          2.9460    -3.6830    -1.0620 c3         1 FYI      -0.088100
     28 C18          4.8440    -3.1330     2.3670 c3         1 FYI      -0.089100
     29 N3           5.0570    -0.4550    -0.1250 ns         1 FYI      -0.491900
     30 C19          6.0500     0.3690    -0.8510 c3         1 FYI       0.048700
     31 C20          7.4650    -0.2840    -0.7630 c          1 FYI       0.600100
     32 O10          7.7140    -1.2810    -0.1030 o          1 FYI      -0.604100
     33 C21          6.0440     1.8410    -0.3470 c3         1 FYI      -0.179400
     34 C22          4.6650     2.4920    -0.4490 c          1 FYI       0.600100
     35 O11          4.2380     2.9920    -1.4740 o          1 FYI      -0.584100
     36 N4           3.9320     2.5130     0.6840 nt         1 FYI      -0.608000
     37 N5           8.4570     0.3200    -1.4580 nt         1 FYI      -0.603000
     38 H1          -2.9130    -2.2670     0.3290 ha         1 FYI       0.069500
     39 H2          -5.2950    -2.4900    -0.3280 ha         1 FYI       0.124000
     40 H3          -6.0130     1.5890     0.9040 ha         1 FYI       0.124000
     41 H4          -3.6500     1.8140     1.5540 ha         1 FYI       0.069500
     42 H7          -1.4890     0.8300     1.9950 hc         1 FYI       0.049700
     43 H8          -1.3760    -0.9110     2.0380 hc         1 FYI       0.049700
     44 H9          -0.8960    -0.9600    -0.4090 hc         1 FYI       0.063700
     45 H11         -0.2140     0.9650    -1.6760 hc         1 FYI       0.074200
     46 H12         -1.9100     1.1420    -1.1530 hc         1 FYI       0.074200
     47 H13          1.1570     2.5800    -1.3350 hn         1 FYI       0.311500
     48 H14          0.2820     5.1870    -0.5530 h1         1 FYI       0.031033
     49 H15          1.2340     4.4770     0.7900 h1         1 FYI       0.031033
     50 H16          1.9790     4.6880    -0.8250 h1         1 FYI       0.031033
     51 H17          0.9480    -1.9150    -0.4360 hn         1 FYI       0.326500
     52 H19          3.1230    -1.2080     1.4380 h1         1 FYI       0.086700
     53 H20          2.4320    -3.5780     1.0130 hc         1 FYI       0.066700
     54 H21          4.6450    -4.6190     0.8300 hc         1 FYI       0.046700
     55 H22          5.3610    -3.1280     0.2580 hc         1 FYI       0.046700
     56 H23          3.6740    -3.2780    -1.7760 hc         1 FYI       0.038367
     57 H24          3.0560    -4.7740    -1.0520 hc         1 FYI       0.038367
     58 H25          1.9390    -3.4570    -1.4330 hc         1 FYI       0.038367
     59 H26          5.7910    -3.5740     2.7030 hc         1 FYI       0.027700
     60 H27          4.9230    -2.0470     2.4860 hc         1 FYI       0.027700
     61 H28          4.0470    -3.4990     3.0250 hc         1 FYI       0.027700
     62 H30          5.3460    -0.8910     0.7440 hn         1 FYI       0.326500
     63 H32          5.7910     0.3720    -1.9180 h1         1 FYI       0.089700
     64 H33          6.3650     1.8280     0.7020 hc         1 FYI       0.067200
     65 H34          6.7480     2.4290    -0.9470 hc         1 FYI       0.067200
     66 H35          4.2910     2.0900     1.5260 hn         1 FYI       0.315000
     67 H36          2.9950     2.8830     0.6590 hn         1 FYI       0.315000
     68 H38          8.2660     1.1450    -2.0080 hn         1 FYI       0.314000
     69 H39          9.3880    -0.0680    -1.4240 hn         1 FYI       0.314000
@<TRIPOS>BOND
     1     1     2 ar  
     2     1     6 ar  
     3     1    38 1   
     4     2     3 ar  
     5     2    39 1   
     6     3     4 ar  
     7     3     7 1   
     8     4     5 ar  
     9     4    40 1   
    10     5     6 ar  
    11     5    41 1   
    12     6    12 1   
    13     7     8 1   
    14     8     9 1   
    15     8    10 1   
    16     8    11 1   
    17    12    13 1   
    18    12    42 1   
    19    12    43 1   
    20    13    14 1   
    21    13    16 1   
    22    13    44 1   
    23    14    15 2   
    24    14    21 1   
    25    16    17 1   
    26    16    45 1   
    27    16    46 1   
    28    17    18 1   
    29    17    20 2   
    30    18    19 1   
    31    18    47 1   
    32    19    48 1   
    33    19    49 1   
    34    19    50 1   
    35    21    22 1   
    36    21    51 1   
    37    22    23 1   
    38    22    25 1   
    39    22    52 1   
    40    23    24 2   
    41    23    29 1   
    42    25    26 1   
    43    25    27 1   
    44    25    53 1   
    45    26    28 1   
    46    26    54 1   
    47    26    55 1   
    48    27    56 1   
    49    27    57 1   
    50    27    58 1   
    51    28    59 1   
    52    28    60 1   
    53    28    61 1   
    54    29    30 1   
    55    29    62 1   
    56    30    31 1   
    57    30    33 1   
    58    30    63 1   
    59    31    32 2   
    60    31    37 1   
    61    33    34 1   
    62    33    64 1   
    63    33    65 1   
    64    34    35 2   
    65    34    36 1   
    66    36    66 1   
    67    36    67 1   
    68    37    68 1   
    69    37    69 1   
@<TRIPOS>SUBSTRUCTURE
     1 FYI         1 TEMP              0 ****  ****    0 ROOT
