@<TRIPOS>MOLECULE
FYJ
   32    33     1     0     0
SMALL
bcc


@<TRIPOS>ATOM
      1 C10         -1.9990     2.4070     0.0370 c          1 FYJ       0.945600
      2 C02         -2.3760    -1.4310    -0.4190 c6         1 FYJ       0.147100
      3 C03         -1.1220    -1.7960     0.3760 c6         1 FYJ       0.084100
      4 C05         -0.0610    -0.7110     0.1680 c6         1 FYJ       0.206200
      5 C07         -1.6340     0.9450    -0.2870 c6         1 FYJ      -0.057900
      6 C08         -2.8220    -0.0130    -0.1000 c6         1 FYJ       0.153100
      7 C14          2.6660    -0.2210     0.3490 ca         1 FYJ       0.031900
      8 C15          2.5680     1.1420     0.0680 ca         1 FYJ      -0.094000
      9 C16          3.6100     1.7830    -0.5870 ca         1 FYJ      -0.142000
     10 C17          4.7590     1.0850    -0.9350 ca         1 FYJ      -0.129000
     11 C18          4.8610    -0.2670    -0.6370 ca         1 FYJ      -0.142000
     12 C19          3.8140    -0.9230    -0.0040 ca         1 FYJ      -0.094000
     13 O01         -3.4370    -2.3070    -0.1340 oh         1 FYJ      -0.580800
     14 O04         -0.6900    -3.0490    -0.0880 oh         1 FYJ      -0.611800
     15 O06         -0.5600     0.5420     0.5310 os         1 FYJ      -0.350600
     16 O09         -3.8870     0.3380    -0.9390 oh         1 FYJ      -0.641800
     17 O11         -1.1770     3.0980     0.6400 o          1 FYJ      -0.805800
     18 O12         -3.1300     2.7690    -0.3830 o          1 FYJ      -0.805800
     19 S13          1.3750    -1.0780     1.2100 ss         1 FYJ      -0.307000
     20 H1          -2.1130    -1.4680    -1.4900 h1         1 FYJ       0.039700
     21 H2          -1.3820    -1.8270     1.4450 h1         1 FYJ       0.058700
     22 H3           0.2760    -0.7220    -0.8790 h2         1 FYJ       0.056700
     23 H4          -1.3350     0.9090    -1.3510 h1         1 FYJ       0.030700
     24 H5          -3.1180     0.0250     0.9630 h1         1 FYJ       0.042700
     25 H6           1.6830     1.6970     0.3500 ha         1 FYJ       0.160500
     26 H7           3.5260     2.8380    -0.8150 ha         1 FYJ       0.126500
     27 H8           5.5720     1.5930    -1.4370 ha         1 FYJ       0.119000
     28 H9           5.7520    -0.8190    -0.9090 ha         1 FYJ       0.126500
     29 H10          3.8880    -1.9820     0.2090 ha         1 FYJ       0.160500
     30 H11         -3.1690    -3.1960    -0.3870 ho         1 FYJ       0.394000
     31 H12          0.0050    -3.3770     0.4920 ho         1 FYJ       0.410000
     32 H13         -3.8980     1.3210    -0.8800 ho         1 FYJ       0.471000
@<TRIPOS>BOND
     1     1     5 1   
     2     1    17 1   
     3     1    18 1   
     4     2     3 1   
     5     2     6 1   
     6     2    13 1   
     7     2    20 1   
     8     3     4 1   
     9     3    14 1   
    10     3    21 1   
    11     4    15 1   
    12     4    19 1   
    13     4    22 1   
    14     5     6 1   
    15     5    15 1   
    16     5    23 1   
    17     6    16 1   
    18     6    24 1   
    19     7     8 ar  
    20     7    12 ar  
    21     7    19 1   
    22     8     9 ar  
    23     8    25 1   
    24     9    10 ar  
    25     9    26 1   
    26    10    11 ar  
    27    10    27 1   
    28    11    12 ar  
    29    11    28 1   
    30    12    29 1   
    31    13    30 1   
    32    14    31 1   
    33    16    32 1   
@<TRIPOS>SUBSTRUCTURE
     1 FYJ         1 TEMP              0 ****  ****    0 ROOT
