@<TRIPOS>MOLECULE
FYJ
   32    33     1     0     0
SMALL
No Charge or Current Charge


@<TRIPOS>ATOM
      1 C10         -1.7170     2.4360     0.6300 c          1 FYJ       0.735000
      2 C02         -2.5990    -1.2330    -0.4900 c6         1 FYJ       0.170300
      3 C03         -1.2990    -1.9180     0.0200 c6         1 FYJ       0.107300
      4 C05         -0.0970    -0.9460    -0.2150 c6         1 FYJ       0.277300
      5 C07         -1.5300     1.0300    -0.0320 c6         1 FYJ      -0.034700
      6 C08         -2.7940     0.1550     0.1940 c6         1 FYJ       0.176300
      7 C14          2.7630    -0.4330    -0.0320 ca         1 FYJ      -0.095000
      8 C15          2.5280     0.6240    -0.9390 ca         1 FYJ      -0.076000
      9 C16          3.5590     1.5290    -1.2510 ca         1 FYJ      -0.124000
     10 C17          4.8280     1.3860    -0.6660 ca         1 FYJ      -0.111000
     11 C18          5.0680     0.3340     0.2330 ca         1 FYJ      -0.124000
     12 C19          4.0390    -0.5720     0.5460 ca         1 FYJ      -0.076000
     13 O01         -3.7340    -2.0830    -0.2540 oh         1 FYJ      -0.643000
     14 O04         -1.1200    -3.1970    -0.6400 oh         1 FYJ      -0.734000
     15 O06         -0.3550     0.3090     0.4550 os         1 FYJ      -0.397000
     16 O09         -3.9820     0.7860    -0.3120 oh         1 FYJ      -0.764000
     17 O11         -1.1850     2.6010     1.7220 o          1 FYJ      -0.700500
     18 O12         -1.7850     3.3790    -0.1500 o          1 FYJ      -0.700500
     19 S13          1.5040    -1.6400     0.4150 ss         1 FYJ      -0.228000
     20 H1          -2.4860    -1.0660    -1.5720 h1         1 FYJ       0.039700
     21 H2          -1.3940    -2.0710     1.1060 h1         1 FYJ       0.058700
     22 H3           0.0270    -0.7780    -1.2950 h2         1 FYJ       0.056700
     23 H4          -1.4020     1.1950    -1.1120 h1         1 FYJ       0.030700
     24 H5          -2.9000    -0.0090     1.2780 h1         1 FYJ       0.042700
     25 H6           1.5610     0.7590    -1.4110 ha         1 FYJ       0.142500
     26 H7           3.3730     2.3420    -1.9500 ha         1 FYJ       0.108500
     27 H8           5.6230     2.0870    -0.9100 ha         1 FYJ       0.101000
     28 H9           6.0500     0.2190     0.6860 ha         1 FYJ       0.108500
     29 H10          4.2330    -1.3850     1.2430 ha         1 FYJ       0.142500
     30 H11         -3.4020    -2.9910    -0.4400 ho         1 FYJ       0.433000
     31 H12         -0.2900    -3.5940    -0.2840 ho         1 FYJ       0.509000
     32 H13         -4.6390     0.0490    -0.3970 ho         1 FYJ       0.570000
@<TRIPOS>BOND
     1     1     5 1   
     2     1    17 1   
     3     1    18 1   
     4     2     3 1   
     5     2     6 1   
     6     2    13 1   
     7     2    20 1   
     8     3     4 1   
     9     3    14 1   
    10     3    21 1   
    11     4    15 1   
    12     4    19 1   
    13     4    22 1   
    14     5     6 1   
    15     5    15 1   
    16     5    23 1   
    17     6    16 1   
    18     6    24 1   
    19     7     8 ar  
    20     7    12 ar  
    21     7    19 1   
    22     8     9 ar  
    23     8    25 1   
    24     9    10 ar  
    25     9    26 1   
    26    10    11 ar  
    27    10    27 1   
    28    11    12 ar  
    29    11    28 1   
    30    12    29 1   
    31    13    30 1   
    32    14    31 1   
    33    16    32 1   
@<TRIPOS>SUBSTRUCTURE
     1 FYJ         1 TEMP              0 ****  ****    0 ROOT
