@<TRIPOS>MOLECULE
FYK
   31    33     1     0     0
SMALL
abcg2


@<TRIPOS>ATOM
      1 C4           0.0110    -0.9530    -0.1310 ca         1 FYK      -0.055000
      2 C5          -1.3210    -1.1950     0.1830 ca         1 FYK       0.083000
      3 C6          -2.2470    -0.1660     0.3930 ca         1 FYK       0.125100
      4 C7          -4.4530     0.4630     0.9130 cx         1 FYK       0.107300
      5 C8          -5.8530     0.1090     0.5730 cx         1 FYK      -0.140900
      6 C10         -1.8390     1.1670     0.2830 ca         1 FYK      -0.165000
      7 C12          1.4240     2.3320    -0.4770 c          1 FYK       0.678100
      8 N            1.5970     0.9860    -0.5220 n          1 FYK      -0.293000
      9 C2           2.8690     0.3190    -0.7450 c3         1 FYK       0.131000
     10 C1           3.4820    -0.1980     0.5460 c3         1 FYK      -0.239400
     11 C            4.8230    -0.9290     0.3440 c          1 FYK       0.725000
     12 O1           5.2940    -0.9440    -0.8100 o          1 FYK      -0.730000
     13 O            5.3260    -1.4380     1.3640 o          1 FYK      -0.730000
     14 O3           0.1110     2.5790    -0.1820 os         1 FYK      -0.306200
     15 C11         -0.5190     1.3840    -0.0250 ca         1 FYK       0.074100
     16 C3           0.3960     0.3680    -0.2290 ca         1 FYK      -0.013400
     17 CL          -1.8620    -2.8310     0.3220 cl         1 FYK      -0.193000
     18 O2          -3.5010    -0.5400     0.7050 os         1 FYK      -0.303100
     19 C9          -5.1020     1.1030    -0.2700 cx         1 FYK      -0.140900
     20 H1           0.7010    -1.7710    -0.2830 ha         1 FYK       0.159000
     21 H2          -4.2720     1.0730     1.7940 h1         1 FYK       0.082700
     22 H3          -6.0350    -0.8700     0.1480 hc         1 FYK       0.080200
     23 H4          -6.6350     0.4670     1.2290 hc         1 FYK       0.080200
     24 H5          -2.5220     1.9920     0.4270 ha         1 FYK       0.136000
     25 H6           2.6980    -0.4910    -1.4550 h1         1 FYK       0.070200
     26 H7           3.5300     1.0300    -1.2350 h1         1 FYK       0.070200
     27 H8           3.6380     0.6370     1.2370 hc         1 FYK       0.031700
     28 H9           2.7860    -0.8730     1.0550 hc         1 FYK       0.031700
     29 H11         -5.3590     2.1510    -0.1980 hc         1 FYK       0.080200
     30 H12         -4.7840     0.7820    -1.2540 hc         1 FYK       0.080200
     31 O4           2.2210     3.2150    -0.6550 o          1 FYK      -0.516000
@<TRIPOS>BOND
     1     1     2 ar  
     2     1    16 ar  
     3     1    20 1   
     4     2     3 ar  
     5     2    17 1   
     6     3     6 ar  
     7     3    18 1   
     8     4     5 1   
     9     4    18 1   
    10     4    19 1   
    11     4    21 1   
    12     5    19 1   
    13     5    22 1   
    14     5    23 1   
    15     6    15 ar  
    16     6    24 1   
    17     7     8 1   
    18     7    14 1   
    19     7    31 2   
    20     8     9 1   
    21     8    16 1   
    22     9    10 1   
    23     9    25 1   
    24     9    26 1   
    25    10    11 1   
    26    10    27 1   
    27    10    28 1   
    28    11    12 1   
    29    11    13 1   
    30    14    15 1   
    31    15    16 ar  
    32    19    29 1   
    33    19    30 1   
@<TRIPOS>SUBSTRUCTURE
     1 FYK         1 TEMP              0 ****  ****    0 ROOT
