@<TRIPOS>MOLECULE
FYK
   31    33     1     0     0
SMALL
No Charge or Current Charge


@<TRIPOS>ATOM
      1 C4          -0.0820    -1.0150    -0.2370 ca         1 FYK      -0.055000
      2 C5          -1.4760    -1.2310    -0.1550 ca         1 FYK       0.083000
      3 C6          -2.3900    -0.1950    -0.5070 ca         1 FYK       0.125100
      4 C7          -4.2060    -0.0640     0.8350 cx         1 FYK       0.107300
      5 C8          -5.6850     0.1930     0.9780 cx         1 FYK      -0.140900
      6 C10         -1.9150     1.0470    -0.9860 ca         1 FYK      -0.165000
      7 C12          1.5140     2.0330    -1.5320 c          1 FYK       0.678100
      8 N            1.6300     0.7490    -0.9660 n          1 FYK      -0.293000
      9 C2           2.9090     0.1530    -0.5430 c3         1 FYK       0.131000
     10 C1           3.1440     0.2510     0.9770 c3         1 FYK      -0.239400
     11 C            4.4930    -0.3890     1.3030 c          1 FYK       0.725000
     12 O1           5.4890     0.3160     1.2560 o          1 FYK      -0.730000
     13 O            4.5180    -1.5870     1.5320 o          1 FYK      -0.730000
     14 O3           0.1600     2.2890    -1.5570 os         1 FYK      -0.306200
     15 C11         -0.5310     1.2300    -1.0310 ca         1 FYK       0.074100
     16 C3           0.3540     0.2630    -0.6100 ca         1 FYK      -0.013400
     17 Cl          -2.0610    -2.8160     0.3550 cl         1 FYK      -0.193000
     18 O2          -3.7480    -0.4130    -0.4550 os         1 FYK      -0.303100
     19 C9          -4.7110     1.3450     1.0380 cx         1 FYK      -0.140900
     20 H1           0.6230    -1.8100    -0.0110 ha         1 FYK       0.159000
     21 H2          -3.6970    -0.5650     1.6600 h1         1 FYK       0.082700
     22 H3          -6.3040     0.0950     0.0890 hc         1 FYK       0.080200
     23 H4          -6.1630    -0.1190     1.9030 hc         1 FYK       0.080200
     24 H5          -2.5960     1.8210    -1.3250 ha         1 FYK       0.136000
     25 H6           2.9170    -0.9030    -0.8470 h1         1 FYK       0.070200
     26 H7           3.7320     0.6510    -1.0730 h1         1 FYK       0.070200
     27 H8           3.1530     1.3220     1.2130 hc         1 FYK       0.031700
     28 H9           2.3270    -0.3040     1.4520 hc         1 FYK       0.031700
     29 H11         -4.5290     1.8090     2.0040 hc         1 FYK       0.080200
     30 H12         -4.6780     2.0260     0.1920 hc         1 FYK       0.080200
     31 O4           2.4110     2.7750    -1.9080 o          1 FYK      -0.516000
@<TRIPOS>BOND
     1     1     2 ar  
     2     1    16 ar  
     3     1    20 1   
     4     2     3 ar  
     5     2    17 1   
     6     3     6 ar  
     7     3    18 1   
     8     4     5 1   
     9     4    18 1   
    10     4    19 1   
    11     4    21 1   
    12     5    19 1   
    13     5    22 1   
    14     5    23 1   
    15     6    15 ar  
    16     6    24 1   
    17     7     8 1   
    18     7    14 1   
    19     7    31 2   
    20     8     9 1   
    21     8    16 1   
    22     9    10 1   
    23     9    25 1   
    24     9    26 1   
    25    10    11 1   
    26    10    27 1   
    27    10    28 1   
    28    11    12 1   
    29    11    13 1   
    30    14    15 1   
    31    15    16 ar  
    32    19    29 1   
    33    19    30 1   
@<TRIPOS>SUBSTRUCTURE
     1 FYK         1 TEMP              0 ****  ****    0 ROOT
