@<TRIPOS>MOLECULE
FYL
   54    56     1     0     0
SMALL
bcc


@<TRIPOS>ATOM
      1 N1           6.7180    -1.0580    23.2310 na         1 FYL      -0.189900
      2 C2           5.8200    -1.7320    22.4470 cc         1 FYL      -0.263600
      3 C3           5.4260    -0.8380    21.4970 cd         1 FYL       0.299200
      4 N4           6.0530     0.3590    21.6880 nd         1 FYL      -0.650000
      5 C5           6.8200     0.2030    22.7370 cc         1 FYL       0.357800
      6 C6           7.3870    -1.6060    24.3920 c3         1 FYL       0.009000
      7 C7           6.8170    -1.0620    25.6600 cc         1 FYL       0.304600
      8 N8           7.5920    -0.5420    26.5670 nd         1 FYL      -0.353300
      9 O9           6.7870    -0.1460    27.5840 os         1 FYL      -0.099100
     10 C10          5.5090    -0.4260    27.2760 cd         1 FYL       0.436700
     11 C11          5.4590    -1.0150    26.0520 cc         1 FYL      -0.362600
     12 C12          4.5190    -0.0830    28.2110 ch         1 FYL      -0.266000
     13 C13          7.6800     1.2820    23.3380 c3         1 FYL       0.136800
     14 C14          6.8390     2.2450    24.1630 c3         1 FYL      -0.085100
     15 O15          8.3190     2.0310    22.3330 oh         1 FYL      -0.573800
     16 C16          3.6650     0.2100    29.0130 cg         1 FYL       0.005000
     17 C17          2.6610     0.5510    29.9520 ca         1 FYL      -0.055000
     18 C18          2.9980     1.1430    31.1710 ca         1 FYL      -0.052500
     19 C19          2.0240     1.4790    32.0950 ca         1 FYL      -0.204500
     20 C20          0.6790     1.2270    31.8130 ca         1 FYL       0.176100
     21 C21          0.3350     0.6330    30.5920 ca         1 FYL      -0.204500
     22 C22          1.3090     0.3000    29.6770 ca         1 FYL      -0.052500
     23 O23         -0.3350     1.5160    32.6310 os         1 FYL      -0.272900
     24 C24         -0.0560     2.1370    33.8710 c3         1 FYL       0.156400
     25 C25         -1.3500     2.3950    34.6420 c3         1 FYL       0.183200
     26 C26         -2.0340     1.1080    35.1080 c3         1 FYL       0.125900
     27 C27         -0.9890     3.2200    35.8890 c3         1 FYL       0.125900
     28 N28         -2.2630     3.1520    33.8000 n8         1 FYL      -0.856800
     29 O29         -2.4940     0.3460    34.0220 oh         1 FYL      -0.579300
     30 O30         -0.0980     2.5180    36.7240 oh         1 FYL      -0.579300
     31 H1           5.5590    -2.7600    22.6330 h4         1 FYL       0.174000
     32 H2           4.7320    -0.9970    20.6860 h4         1 FYL       0.039100
     33 H3           7.2600    -2.6880    24.3670 h1         1 FYL       0.080700
     34 H4           8.4570    -1.4090    24.3440 h1         1 FYL       0.080700
     35 H5           4.5900    -1.3590    25.5180 ha         1 FYL       0.184000
     36 H6           8.4200     0.8150    24.0030 h1         1 FYL       0.032700
     37 H7           6.3340     1.7210    24.9730 hc         1 FYL       0.050367
     38 H8           7.4660     3.0200    24.6050 hc         1 FYL       0.050367
     39 H9           6.0790     2.7190    23.5420 hc         1 FYL       0.050367
     40 H10          8.8630     1.4380    21.8040 ho         1 FYL       0.408000
     41 H11          4.0350     1.3410    31.4030 ha         1 FYL       0.139000
     42 H12          2.3320     1.9340    33.0260 ha         1 FYL       0.148000
     43 H13         -0.7060     0.4390    30.3710 ha         1 FYL       0.148000
     44 H14          1.0260    -0.1570    28.7390 ha         1 FYL       0.139000
     45 H15          0.6190     1.5160    34.4670 h1         1 FYL       0.041200
     46 H16          0.4470     3.0980    33.6950 h1         1 FYL       0.041200
     47 H17         -2.8660     1.3970    35.7690 h1         1 FYL       0.022200
     48 H18         -1.3270     0.5400    35.7250 h1         1 FYL       0.022200
     49 H19         -0.5570     4.1730    35.5560 h1         1 FYL       0.022200
     50 H20         -1.9250     3.4650    36.4120 h1         1 FYL       0.022200
     51 H21         -3.1170     3.3470    34.3090 hn         1 FYL       0.341300
     52 H22         -1.8580     4.0550    33.5780 hn         1 FYL       0.341300
     53 H24         -2.8890    -0.4530    34.3800 ho         1 FYL       0.405000
     54 H25          0.1290     3.0840    37.4660 ho         1 FYL       0.405000
@<TRIPOS>BOND
     1     1     2 1   
     2     1     5 1   
     3     1     6 1   
     4     2     3 2   
     5     2    31 1   
     6     3     4 1   
     7     3    32 1   
     8     4     5 2   
     9     5    13 1   
    10     6     7 1   
    11     6    33 1   
    12     6    34 1   
    13     7     8 2   
    14     7    11 1   
    15     8     9 1   
    16     9    10 1   
    17    10    11 2   
    18    10    12 1   
    19    11    35 1   
    20    12    16 3   
    21    13    14 1   
    22    13    15 1   
    23    13    36 1   
    24    14    37 1   
    25    14    38 1   
    26    14    39 1   
    27    15    40 1   
    28    16    17 1   
    29    17    18 ar  
    30    17    22 ar  
    31    18    19 ar  
    32    18    41 1   
    33    19    20 ar  
    34    19    42 1   
    35    20    21 ar  
    36    20    23 1   
    37    21    22 ar  
    38    21    43 1   
    39    22    44 1   
    40    23    24 1   
    41    24    25 1   
    42    24    45 1   
    43    24    46 1   
    44    25    26 1   
    45    25    27 1   
    46    25    28 1   
    47    26    29 1   
    48    26    47 1   
    49    26    48 1   
    50    27    30 1   
    51    27    49 1   
    52    27    50 1   
    53    28    51 1   
    54    28    52 1   
    55    29    53 1   
    56    30    54 1   
@<TRIPOS>SUBSTRUCTURE
     1 FYL         1 TEMP              0 ****  ****    0 ROOT
