@<TRIPOS>MOLECULE
FYL
   54    56     1     0     0
SMALL
No Charge or Current Charge


@<TRIPOS>ATOM
      1 N1           6.5550    -1.1060    23.2110 na         1 FYL      -0.168500
      2 C2           5.5710    -1.7040    22.4530 cc         1 FYL      -0.231000
      3 C3           5.1640    -0.7540    21.5530 cd         1 FYL       0.233900
      4 N4           5.8670     0.4170    21.7340 nd         1 FYL      -0.650000
      5 C5           6.6980     0.1920    22.7450 cc         1 FYL       0.357800
      6 C6           7.3060    -1.7490    24.3080 c3         1 FYL       0.038300
      7 C7           6.9930    -1.1850    25.6680 cc         1 FYL       0.239300
      8 N8           7.9120    -0.7160    26.4980 nd         1 FYL      -0.353300
      9 O9           7.1440    -0.2780    27.6420 os         1 FYL      -0.054700
     10 C10          5.8210    -0.5270    27.3900 cd         1 FYL       0.327000
     11 C11          5.6840    -1.0930    26.1710 cc         1 FYL      -0.214000
     12 C12          4.8390    -0.1800    28.3530 ch         1 FYL      -0.266000
     13 C13          7.6790     1.2280    23.2920 c3         1 FYL       0.160000
     14 C14          7.0090     2.1980    24.2860 c3         1 FYL      -0.085100
     15 O15          8.2670     2.0010    22.2290 oh         1 FYL      -0.636000
     16 C16          3.9550     0.1420    29.1300 cg         1 FYL       0.005000
     17 C17          2.9080     0.5260    30.0310 ca         1 FYL      -0.055000
     18 C18          3.2210     1.1490    31.2540 ca         1 FYL      -0.034500
     19 C19          2.1950     1.5270    32.1390 ca         1 FYL      -0.186500
     20 C20          0.8460     1.2820    31.8030 ca         1 FYL       0.176100
     21 C21          0.5390     0.6610    30.5820 ca         1 FYL      -0.186500
     22 C22          1.5630     0.2830    29.6960 ca         1 FYL      -0.034500
     23 O23         -0.2020     1.6290    32.6290 os         1 FYL      -0.296100
     24 C24          0.0050     2.2630    33.9100 c3         1 FYL       0.179600
     25 C25         -1.3680     2.5280    34.6220 c3         1 FYL       0.183200
     26 C26         -2.0870     1.1760    34.9820 c3         1 FYL       0.149100
     27 C27         -1.1040     3.3420    35.9340 c3         1 FYL       0.149100
     28 N28         -2.2670     3.3280    33.7310 n8         1 FYL      -0.967200
     29 O29         -2.7540     0.5890    33.8440 oh         1 FYL      -0.641500
     30 O30         -0.2660     2.6240    36.8560 oh         1 FYL      -0.641500
     31 H1           5.2420    -2.7260    22.5960 h4         1 FYL       0.156000
     32 H2           4.4060    -0.8500    20.7850 h4         1 FYL       0.039100
     33 H3           7.0750    -2.8220    24.3140 h1         1 FYL       0.080700
     34 H4           8.3800    -1.6470    24.1090 h1         1 FYL       0.080700
     35 H5           4.7720    -1.4040    25.6760 ha         1 FYL       0.166000
     36 H6           8.4760     0.7000    23.8300 h1         1 FYL       0.032700
     37 H7           6.5650     1.6500    25.1230 hc         1 FYL       0.050367
     38 H8           7.7440     2.9020    24.6930 hc         1 FYL       0.050367
     39 H9           6.2140     2.7730    23.7950 hc         1 FYL       0.050367
     40 H10          7.5810     2.0470    21.5250 ho         1 FYL       0.447000
     41 H11          4.2590     1.3400    31.5190 ha         1 FYL       0.121000
     42 H12          2.4680     2.0050    33.0750 ha         1 FYL       0.130000
     43 H13         -0.4990     0.4710    30.3210 ha         1 FYL       0.130000
     44 H14          1.3120    -0.1980    28.7530 ha         1 FYL       0.121000
     45 H15          0.6280     1.6260    34.5500 h1         1 FYL       0.041200
     46 H16          0.5260     3.2190    33.7740 h1         1 FYL       0.041200
     47 H17         -2.8300     1.3710    35.7670 h1         1 FYL       0.022200
     48 H18         -1.3540     0.4730    35.4000 h1         1 FYL       0.022200
     49 H19         -0.6320     4.2990    35.6730 h1         1 FYL       0.022200
     50 H20         -2.0650     3.5740    36.4130 h1         1 FYL       0.022200
     51 H21         -2.7010     2.6410    33.1020 hn         1 FYL       0.396500
     52 H22         -3.0640     3.6640    34.2810 hn         1 FYL       0.396500
     53 H24         -3.1380    -0.2640    34.1440 ho         1 FYL       0.444000
     54 H25         -0.1550     3.1940    37.6490 ho         1 FYL       0.444000
@<TRIPOS>BOND
     1     1     2 1   
     2     1     5 1   
     3     1     6 1   
     4     2     3 2   
     5     2    31 1   
     6     3     4 1   
     7     3    32 1   
     8     4     5 2   
     9     5    13 1   
    10     6     7 1   
    11     6    33 1   
    12     6    34 1   
    13     7     8 2   
    14     7    11 1   
    15     8     9 1   
    16     9    10 1   
    17    10    11 2   
    18    10    12 1   
    19    11    35 1   
    20    12    16 3   
    21    13    14 1   
    22    13    15 1   
    23    13    36 1   
    24    14    37 1   
    25    14    38 1   
    26    14    39 1   
    27    15    40 1   
    28    16    17 1   
    29    17    18 ar  
    30    17    22 ar  
    31    18    19 ar  
    32    18    41 1   
    33    19    20 ar  
    34    19    42 1   
    35    20    21 ar  
    36    20    23 1   
    37    21    22 ar  
    38    21    43 1   
    39    22    44 1   
    40    23    24 1   
    41    24    25 1   
    42    24    45 1   
    43    24    46 1   
    44    25    26 1   
    45    25    27 1   
    46    25    28 1   
    47    26    29 1   
    48    26    47 1   
    49    26    48 1   
    50    27    30 1   
    51    27    49 1   
    52    27    50 1   
    53    28    51 1   
    54    28    52 1   
    55    29    53 1   
    56    30    54 1   
@<TRIPOS>SUBSTRUCTURE
     1 FYL         1 TEMP              0 ****  ****    0 ROOT
