@<TRIPOS>MOLECULE
FYM
   63    66     1     0     0
SMALL
No Charge or Current Charge


@<TRIPOS>ATOM
      1 C1           5.6650     2.0370     1.3310 ca         1 FYM      -0.115000
      2 C2           5.2640     0.9870     0.4940 ca         1 FYM      -0.158000
      3 C3          -3.0220     2.1480     0.2230 ca         1 FYM      -0.060500
      4 C4          -4.6090     0.9750    -1.1990 ca         1 FYM      -0.060500
      5 C5           4.8430     3.1610     1.4870 ca         1 FYM      -0.215000
      6 C6          -4.0830     2.6180     1.0160 ca         1 FYM      -0.185500
      7 C7          -5.6710     1.4460    -0.4050 ca         1 FYM      -0.185500
      8 C8          -1.3410    -3.2710    -0.6310 ca         1 FYM      -0.078000
      9 C9           1.3040    -4.2510    -0.4310 ca         1 FYM      -0.108000
     10 C10         -0.2670    -2.4860    -1.1330 ca         1 FYM      -0.105600
     11 C11          3.2000     2.1790    -0.0330 ca         1 FYM      -0.114600
     12 C12         -3.2810     1.3260    -0.8900 ca         1 FYM      -0.123300
     13 C13          4.0350     1.0430    -0.1950 ca         1 FYM      -0.056300
     14 C14          1.0730    -2.9830    -1.0200 ca         1 FYM      -0.021300
     15 C15         -1.0590    -4.5120    -0.0520 ca         1 FYM       0.031100
     16 C16          0.2140    -4.9850     0.0410 ca         1 FYM       0.047100
     17 C17         -5.4080     2.2720     0.7090 ca         1 FYM       0.122100
     18 C18          3.6080     3.2390     0.8050 ca         1 FYM       0.139100
     19 C20          1.8850     2.2830    -0.7540 c          1 FYM       0.742600
     20 C21         -1.1350    -6.4760     0.9610 c5         1 FYM       0.375600
     21 C22          2.9670    -1.5230     0.8460 c3         1 FYM       0.149100
     22 C23         -7.7970     2.4670     1.2960 c3         1 FYM       0.154900
     23 C24          3.1160     5.4700     1.7550 c3         1 FYM       0.154900
     24 C25         -2.1330     0.8130    -1.7450 c3         1 FYM       0.136300
     25 C26          3.6400    -0.1340    -1.0960 c3         1 FYM       0.220100
     26 C27          2.2970    -2.1640    -1.4470 c3         1 FYM       0.201100
     27 N28         -1.6400    -0.4670    -1.2440 ns         1 FYM      -0.468900
     28 N29          2.6240    -1.0510    -0.5180 n3         1 FYM      -0.676600
     29 O30          0.8550     2.1500    -0.1060 o          1 FYM      -0.719500
     30 O31         -0.0210    -0.7530    -2.7990 o          1 FYM      -0.616100
     31 O32          1.9070     2.5740    -1.9440 o          1 FYM      -0.719500
     32 O33         -1.9730    -5.3780     0.4530 os         1 FYM      -0.349100
     33 O34          0.2730    -6.2090     0.6240 os         1 FYM      -0.352100
     34 O35         -6.4080     2.7630     1.5240 os         1 FYM      -0.349100
     35 O36          2.7840     4.3440     0.9250 os         1 FYM      -0.307100
     36 H1           6.6150     1.9790     1.8570 ha         1 FYM       0.085000
     37 H2           5.9110     0.1200     0.3810 ha         1 FYM       0.088000
     38 H5           5.1820     3.9610     2.1380 ha         1 FYM       0.093000
     39 H3          -1.9980     2.4220     0.4740 ha         1 FYM       0.143000
     40 H6          -3.8760     3.2530     1.8740 ha         1 FYM       0.111000
     41 H4          -4.8200     0.3360    -2.0550 ha         1 FYM       0.143000
     42 H7          -6.6840     1.1580    -0.6690 ha         1 FYM       0.111000
     43 H8          -2.3750    -2.9450    -0.7110 ha         1 FYM       0.138000
     44 H9           2.3110    -4.6460    -0.3260 ha         1 FYM       0.127000
     45 H251        -2.4670     0.6880    -2.7840 h1         1 FYM       0.085200
     46 H252        -1.3100     1.5410    -1.7430 h1         1 FYM       0.085200
     47 H261         3.2750     0.2660    -2.0510 h1         1 FYM       0.038700
     48 H262         4.5480    -0.7040    -1.3340 h1         1 FYM       0.038700
     49 H271         3.1620    -2.8390    -1.5210 h1         1 FYM       0.042700
     50 H272         2.1410    -1.7850    -2.4640 h1         1 FYM       0.042700
     51 H28         -2.0560    -0.8490    -0.4040 hn         1 FYM       0.323500
     52 H211        -1.2380    -6.5330     2.0510 h2         1 FYM       0.053200
     53 H212        -1.4490    -7.4210     0.5020 h2         1 FYM       0.053200
     54 H221         3.1030    -0.6790     1.5340 h1         1 FYM       0.028367
     55 H222         2.1660    -2.1490     1.2600 h1         1 FYM       0.028367
     56 H223         3.8930    -2.1120     0.8330 h1         1 FYM       0.028367
     57 H231        -8.1160     2.8310     0.3110 h1         1 FYM       0.031033
     58 H232        -7.9790     1.3860     1.3490 h1         1 FYM       0.031033
     59 H233        -8.4190     2.9560     2.0560 h1         1 FYM       0.031033
     60 H241         3.2240     5.1620     2.8030 h1         1 FYM       0.022367
     61 H242         4.0530     5.9350     1.4230 h1         1 FYM       0.022367
     62 H243         2.3230     6.2260     1.7020 h1         1 FYM       0.022367
     63 C19         -0.5820    -1.1570    -1.7890 c          1 FYM       0.626700
@<TRIPOS>BOND
     1     1     2 ar  
     2     1     5 ar  
     3     1    36 1   
     4     2    13 ar  
     5     2    37 1   
     6     3     6 ar  
     7     3    12 ar  
     8     3    39 1   
     9     4     7 ar  
    10     4    12 ar  
    11     4    41 1   
    12     5    18 ar  
    13     5    38 1   
    14     6    17 ar  
    15     6    40 1   
    16     7    17 ar  
    17     7    42 1   
    18     8    10 ar  
    19     8    15 ar  
    20     8    43 1   
    21     9    14 ar  
    22     9    16 ar  
    23     9    44 1   
    24    10    14 ar  
    25    10    63 1   
    26    11    13 ar  
    27    11    18 ar  
    28    11    19 1   
    29    12    24 1   
    30    13    25 1   
    31    14    26 1   
    32    15    16 ar  
    33    15    32 1   
    34    16    33 1   
    35    17    34 1   
    36    18    35 1   
    37    19    29 1   
    38    19    31 1   
    39    20    32 1   
    40    20    33 1   
    41    20    52 1   
    42    20    53 1   
    43    21    28 1   
    44    21    54 1   
    45    21    55 1   
    46    21    56 1   
    47    22    34 1   
    48    22    57 1   
    49    22    58 1   
    50    22    59 1   
    51    23    35 1   
    52    23    60 1   
    53    23    61 1   
    54    23    62 1   
    55    24    27 1   
    56    24    45 1   
    57    24    46 1   
    58    25    28 1   
    59    25    47 1   
    60    25    48 1   
    61    26    28 1   
    62    26    49 1   
    63    26    50 1   
    64    27    51 1   
    65    27    63 1   
    66    30    63 2   
@<TRIPOS>SUBSTRUCTURE
     1 FYM         1 TEMP              0 ****  ****    0 ROOT
