@<TRIPOS>MOLECULE
FYM
   63    66     1     0     0
SMALL
abcg2


@<TRIPOS>ATOM
      1 C1           5.5760     2.2450     0.8000 ca         1 FYM      -0.115000
      2 C2           5.1220     1.1860     0.0350 ca         1 FYM      -0.158000
      3 C3          -2.7780     2.0360     0.2830 ca         1 FYM      -0.060500
      4 C4          -4.3270     1.1410    -1.2950 ca         1 FYM      -0.060500
      5 C5           4.6910     3.2270     1.2280 ca         1 FYM      -0.215000
      6 C6          -3.8250     2.5300     1.0390 ca         1 FYM      -0.185500
      7 C7          -5.3940     1.6360    -0.5510 ca         1 FYM      -0.185500
      8 C8          -1.3180    -3.3210    -0.5130 ca         1 FYM      -0.078000
      9 C9           1.3360    -4.2420    -0.2770 ca         1 FYM      -0.108000
     10 C10         -0.2450    -2.5600    -1.0040 ca         1 FYM      -0.105600
     11 C11          2.8740     2.0590     0.1130 ca         1 FYM      -0.114600
     12 C12         -3.0110     1.3320    -0.8990 ca         1 FYM      -0.123300
     13 C13          3.7760     1.0910    -0.3220 ca         1 FYM      -0.056300
     14 C14          1.0720    -3.0070    -0.8870 ca         1 FYM      -0.021300
     15 C15         -1.0270    -4.5270     0.0700 ca         1 FYM       0.031100
     16 C16          0.2740    -4.9810     0.1810 ca         1 FYM       0.047100
     17 C17         -5.1450     2.3340     0.6270 ca         1 FYM       0.122100
     18 C18          3.3460     3.1280     0.8870 ca         1 FYM       0.139100
     19 C20          1.3920     2.0190    -0.2410 c          1 FYM       0.742600
     20 C21         -1.0810    -6.5860     0.8910 c5         1 FYM       0.375600
     21 C22          2.8340    -1.3390     0.8300 c3         1 FYM       0.149100
     22 C23         -7.4550     2.6810     1.0480 c3         1 FYM       0.154900
     23 C24          2.8270     5.1580     2.0100 c3         1 FYM       0.154900
     24 C25         -1.8620     0.7800    -1.6940 c3         1 FYM       0.136300
     25 C26          3.3410    -0.0760    -1.1700 c3         1 FYM       0.220100
     26 C27          2.2370    -2.1640    -1.3390 c3         1 FYM       0.201100
     27 N28         -1.4020    -0.4680    -1.1070 ns         1 FYM      -0.468900
     28 N29          2.4160    -0.9850    -0.5080 n3         1 FYM      -0.676600
     29 O30          0.6160     1.7420     0.6860 o          1 FYM      -0.719500
     30 O31         -0.2270    -1.1350    -2.9140 o          1 FYM      -0.616100
     31 O32          1.1210     2.3140    -1.4200 o          1 FYM      -0.719500
     32 O33         -1.8700    -5.4350     0.6210 os         1 FYM      -0.349100
     33 O34          0.2810    -6.1820     0.8060 os         1 FYM      -0.352100
     34 O35         -6.1030     2.8520     1.4220 os         1 FYM      -0.349100
     35 O36          2.4180     4.0450     1.2470 os         1 FYM      -0.307100
     36 H1           6.6220     2.3160     1.0700 ha         1 FYM       0.085000
     37 H2           5.8160     0.4200    -0.2910 ha         1 FYM       0.088000
     38 H5           5.0660     4.0530     1.8180 ha         1 FYM       0.093000
     39 H3          -1.7540     2.1880     0.6090 ha         1 FYM       0.143000
     40 H6          -3.6280     3.0750     1.9540 ha         1 FYM       0.111000
     41 H4          -4.5410     0.6010    -2.2100 ha         1 FYM       0.143000
     42 H7          -6.4010     1.4660    -0.9070 ha         1 FYM       0.111000
     43 H8          -2.3400    -2.9790    -0.6120 ha         1 FYM       0.138000
     44 H9           2.3550    -4.5900    -0.1650 ha         1 FYM       0.127000
     45 H251        -2.1790     0.5810    -2.7190 h1         1 FYM       0.085200
     46 H252        -1.0360     1.4920    -1.7260 h1         1 FYM       0.085200
     47 H261         2.8500     0.2850    -2.0780 h1         1 FYM       0.038700
     48 H262         4.2520    -0.6070    -1.4950 h1         1 FYM       0.038700
     49 H271         3.1450    -2.7920    -1.3450 h1         1 FYM       0.042700
     50 H272         2.0820    -1.8350    -2.3660 h1         1 FYM       0.042700
     51 H28         -1.4660    -0.5540    -0.1060 hn         1 FYM       0.323500
     52 H211        -1.2940    -6.9540     1.8940 h2         1 FYM       0.053200
     53 H212        -1.2850    -7.3610     0.1440 h2         1 FYM       0.053200
     54 H221         2.8610    -0.4550     1.4650 h1         1 FYM       0.028367
     55 H222         2.1190    -2.0330     1.2700 h1         1 FYM       0.028367
     56 H223         3.8270    -1.8170     0.8670 h1         1 FYM       0.028367
     57 H231        -7.6780     3.1520     0.0870 h1         1 FYM       0.031033
     58 H232        -7.7360     1.6260     0.9950 h1         1 FYM       0.031033
     59 H233        -8.0530     3.1620     1.8190 h1         1 FYM       0.031033
     60 H241         3.2540     4.8640     2.9730 h1         1 FYM       0.022367
     61 H242         3.5570     5.7770     1.4800 h1         1 FYM       0.022367
     62 H243         1.9350     5.7530     2.1930 h1         1 FYM       0.022367
     63 C19         -0.5870    -1.3080    -1.7570 c          1 FYM       0.626700
@<TRIPOS>BOND
     1     1     2 ar  
     2     1     5 ar  
     3     1    36 1   
     4     2    13 ar  
     5     2    37 1   
     6     3     6 ar  
     7     3    12 ar  
     8     3    39 1   
     9     4     7 ar  
    10     4    12 ar  
    11     4    41 1   
    12     5    18 ar  
    13     5    38 1   
    14     6    17 ar  
    15     6    40 1   
    16     7    17 ar  
    17     7    42 1   
    18     8    10 ar  
    19     8    15 ar  
    20     8    43 1   
    21     9    14 ar  
    22     9    16 ar  
    23     9    44 1   
    24    10    14 ar  
    25    10    63 1   
    26    11    13 ar  
    27    11    18 ar  
    28    11    19 1   
    29    12    24 1   
    30    13    25 1   
    31    14    26 1   
    32    15    16 ar  
    33    15    32 1   
    34    16    33 1   
    35    17    34 1   
    36    18    35 1   
    37    19    29 1   
    38    19    31 1   
    39    20    32 1   
    40    20    33 1   
    41    20    52 1   
    42    20    53 1   
    43    21    28 1   
    44    21    54 1   
    45    21    55 1   
    46    21    56 1   
    47    22    34 1   
    48    22    57 1   
    49    22    58 1   
    50    22    59 1   
    51    23    35 1   
    52    23    60 1   
    53    23    61 1   
    54    23    62 1   
    55    24    27 1   
    56    24    45 1   
    57    24    46 1   
    58    25    28 1   
    59    25    47 1   
    60    25    48 1   
    61    26    28 1   
    62    26    49 1   
    63    26    50 1   
    64    27    51 1   
    65    27    63 1   
    66    30    63 2   
@<TRIPOS>SUBSTRUCTURE
     1 FYM         1 TEMP              0 ****  ****    0 ROOT
