@<TRIPOS>MOLECULE
FYN
   82    84     1     0     0
SMALL
abcg2


@<TRIPOS>ATOM
      1 C8          81.1970   -24.0790     0.0850 cc         1 FYN       0.492700
      2 N9          82.3890   -24.7650     0.1850 na         1 FYN      -0.231300
      3 C4          82.0670   -26.0500     0.5590 ca         1 FYN       0.110500
      4 C5          80.6760   -26.0680     0.6600 ca         1 FYN      -0.080600
      5 N7          80.1520   -24.8210     0.3620 nd         1 FYN      -0.641100
      6 N3          82.8840   -27.0870     0.7790 nb         1 FYN      -0.155000
      7 C2          82.2140   -28.1870     1.1170 ca         1 FYN       0.105900
      8 N1          80.8920   -28.3470     1.2460 nb         1 FYN      -0.347000
      9 C6          80.0840   -27.2920     1.0230 ca         1 FYN       0.397900
     10 N6          78.7570   -27.4440     1.1720 nv         1 FYN      -1.100900
     11 C1          83.7200   -24.2440    -0.0570 c5         1 FYN       0.263300
     12 C10         83.8950   -23.6240    -1.4500 c5         1 FYN       0.165300
     13 O2          84.1210   -24.5950    -2.4340 oh         1 FYN      -0.831000
     14 C3          85.0100   -22.6020    -1.1920 c5         1 FYN       0.191300
     15 O3          86.2930   -23.2120    -1.1690 os         1 FYN      -0.612400
     16 C7          84.6780   -22.1150     0.2210 c5         1 FYN       0.133300
     17 O4          84.0070   -23.2180     0.8810 os         1 FYN      -0.502000
     18 C9          83.8330   -20.8570     0.3310 c3         1 FYN       0.229600
     19 O5          82.5070   -21.0690    -0.1620 os         1 FYN      -0.630400
     20 P1          81.8640   -20.1840    -1.3470 p5         1 FYN       1.517800
     21 O11         82.0280   -18.7220    -1.0410 o          1 FYN      -0.877000
     22 O12         80.5040   -20.7460    -1.5800 o          1 FYN      -0.877000
     23 O6          82.8510   -20.6010    -2.5630 os         1 FYN      -0.708800
     24 P2          83.3270   -19.8370    -3.9240 p5         1 FYN       1.461800
     25 O21         83.8310   -20.9130    -4.8290 o          1 FYN      -0.825500
     26 O22         84.2090   -18.6800    -3.5920 o          1 FYN      -0.825500
     27 O7          81.8790   -19.3240    -4.4420 os         1 FYN      -0.630400
     28 CPB         81.6990   -18.0470    -5.0630 c3         1 FYN       0.246600
     29 CPA         80.2570   -17.5700    -4.8780 c3         1 FYN      -0.061000
     30 CP7         79.9520   -17.5280    -3.3480 c3         1 FYN       0.121300
     31 CP9         80.1610   -16.1680    -5.4930 c3         1 FYN      -0.077100
     32 CP8         79.3060   -18.5290    -5.6020 c3         1 FYN      -0.077100
     33 OP3         80.9960   -16.8740    -2.6450 oh         1 FYN      -0.758000
     34 CP6         78.6130   -16.8470    -3.0550 c          1 FYN       0.584100
     35 OP2         77.5350   -17.3580    -3.3730 o          1 FYN      -0.653100
     36 NP2         78.7090   -15.6580    -2.4420 ns         1 FYN      -0.516900
     37 CP5         77.5700   -14.7990    -2.1880 c3         1 FYN       0.126000
     38 CP4         77.1950   -13.9840    -3.4270 c3         1 FYN      -0.186400
     39 CP3         75.9740   -13.1160    -3.2050 c          1 FYN       0.597100
     40 OP1         75.0060   -13.5070    -2.5530 o          1 FYN      -0.596100
     41 NP1         76.0210   -11.9020    -3.7970 ns         1 FYN      -0.534900
     42 CP2         74.9110   -10.9730    -3.8360 c3         1 FYN       0.104000
     43 CP1         74.2980   -10.8510    -5.2290 c3         1 FYN       0.040600
     44 S           73.5700   -12.4060    -5.8420 ss         1 FYN      -0.389600
     45 P3          87.2030   -23.1930    -2.5870 p5         1 FYN       1.287900
     46 O31         87.3170   -21.7360    -2.9970 o          1 FYN      -0.899500
     47 O32         88.4950   -23.8560    -2.1580 o          1 FYN      -0.899500
     48 O33         86.3610   -24.0310    -3.5690 o          1 FYN      -0.899500
     49 CM1         74.9620   -13.1670    -6.6070 c          1 FYN       0.611500
     50 OM2         74.9330   -14.2830    -7.0710 o          1 FYN      -0.448100
     51 H8          81.1760   -23.0350    -0.1840 h5         1 FYN       0.138800
     52 H1          84.4020   -25.0870     0.0660 h2         1 FYN       0.091700
     53 H2          82.8130   -29.0710     1.3100 h5         1 FYN       0.009100
     54 H6N1        78.1290   -26.7040     0.9040 hn         1 FYN       0.477500
     55 H6N2        78.3790   -28.3640     1.3290 hn         1 FYN       0.477500
     56 H7          82.9890   -23.0590    -1.6860 h1         1 FYN       0.059700
     57 HA          85.0070   -24.4060    -2.8930 ho         1 FYN       0.616000
     58 H3          84.9900   -21.7860    -1.9120 h1         1 FYN       0.122700
     59 H4          85.6150   -21.9230     0.7490 h1         1 FYN       0.052700
     60 H5'1        84.3280   -20.0440    -0.2030 h1         1 FYN       0.019200
     61 H5'2        83.7480   -20.5760     1.3820 h1         1 FYN       0.019200
     62 HPB1        81.9070   -18.1370    -6.1340 h1         1 FYN       0.021700
     63 HPB2        82.3940   -17.3330    -4.6270 h1         1 FYN       0.021700
     64 HP7         79.8600   -18.5590    -2.9980 h1         1 FYN       0.127700
     65 HP91        80.5010   -16.1860    -6.5310 hc         1 FYN       0.021033
     66 HP92        80.7760   -15.4530    -4.9450 hc         1 FYN       0.021033
     67 HP93        79.1300   -15.8100    -5.4890 hc         1 FYN       0.021033
     68 HP81        79.3690   -19.5340    -5.1810 hc         1 FYN       0.021033
     69 HP82        79.5780   -18.5860    -6.6590 hc         1 FYN       0.021033
     70 HP83        78.2740   -18.1920    -5.5260 hc         1 FYN       0.021033
     71 HP3         81.4130   -17.5390    -2.0400 ho         1 FYN       0.560000
     72 HP2         79.6420   -15.3430    -2.2260 hn         1 FYN       0.350500
     73 HP51        77.8260   -14.1350    -1.3620 h1         1 FYN       0.050700
     74 HP52        76.7250   -15.4120    -1.8800 h1         1 FYN       0.050700
     75 HP41        76.9530   -14.6700    -4.2440 hc         1 FYN       0.070700
     76 HP42        78.0460   -13.3840    -3.7520 hc         1 FYN       0.070700
     77 HP1         76.8570   -11.6540    -4.3040 hn         1 FYN       0.307500
     78 HP21        75.2550    -9.9840    -3.5260 h1         1 FYN       0.061200
     79 HP22        74.1670   -11.3150    -3.1190 h1         1 FYN       0.061200
     80 HP11        75.0360   -10.5130    -5.9580 h1         1 FYN       0.061200
     81 HP12        73.4840   -10.1270    -5.2170 h1         1 FYN       0.061200
     82 HM1         75.8590   -12.5270    -6.6380 h5         1 FYN      -0.003800
@<TRIPOS>BOND
     1     1     2 1   
     2     1     5 2   
     3     1    51 1   
     4     2     3 1   
     5     2    11 1   
     6     3     4 ar  
     7     3     6 ar  
     8     4     5 1   
     9     4     9 ar  
    10     6     7 ar  
    11     7     8 ar  
    12     7    53 1   
    13     8     9 ar  
    14     9    10 1   
    15    10    54 1   
    16    10    55 1   
    17    11    12 1   
    18    11    17 1   
    19    11    52 1   
    20    12    13 1   
    21    12    14 1   
    22    12    56 1   
    23    13    57 1   
    24    14    15 1   
    25    14    16 1   
    26    14    58 1   
    27    15    45 1   
    28    16    17 1   
    29    16    18 1   
    30    16    59 1   
    31    18    19 1   
    32    18    60 1   
    33    18    61 1   
    34    19    20 1   
    35    20    21 1   
    36    20    22 1   
    37    20    23 1   
    38    23    24 1   
    39    24    25 1   
    40    24    26 1   
    41    24    27 1   
    42    27    28 1   
    43    28    29 1   
    44    28    62 1   
    45    28    63 1   
    46    29    30 1   
    47    29    31 1   
    48    29    32 1   
    49    30    33 1   
    50    30    34 1   
    51    30    64 1   
    52    31    65 1   
    53    31    66 1   
    54    31    67 1   
    55    32    68 1   
    56    32    69 1   
    57    32    70 1   
    58    33    71 1   
    59    34    35 2   
    60    34    36 1   
    61    36    37 1   
    62    36    72 1   
    63    37    38 1   
    64    37    73 1   
    65    37    74 1   
    66    38    39 1   
    67    38    75 1   
    68    38    76 1   
    69    39    40 2   
    70    39    41 1   
    71    41    42 1   
    72    41    77 1   
    73    42    43 1   
    74    42    78 1   
    75    42    79 1   
    76    43    44 1   
    77    43    80 1   
    78    43    81 1   
    79    44    49 1   
    80    45    46 1   
    81    45    47 1   
    82    45    48 1   
    83    49    50 2   
    84    49    82 1   
@<TRIPOS>SUBSTRUCTURE
     1 FYN         1 TEMP              0 ****  ****    0 ROOT
