@<TRIPOS>MOLECULE
FYN
   82    84     1     0     0
SMALL
No Charge or Current Charge


@<TRIPOS>ATOM
      1 C8          81.2240   -24.4560    -0.1820 cc         1 FYN       0.492700
      2 N9          82.4630   -24.9100     0.2840 na         1 FYN      -0.231300
      3 C4          82.2280   -25.9650     1.1210 ca         1 FYN       0.110500
      4 C5          80.8630   -26.1220     1.1410 ca         1 FYN      -0.080600
      5 N7          80.2080   -25.1880     0.3290 nd         1 FYN      -0.641100
      6 N3          83.0550   -26.7640     1.8270 nb         1 FYN      -0.155000
      7 C2          82.4520   -27.7330     2.5580 ca         1 FYN       0.105900
      8 N1          81.1210   -27.9730     2.6470 nb         1 FYN      -0.347000
      9 C6          80.3250   -27.1590     1.9360 ca         1 FYN       0.397900
     10 N6          78.9910   -27.4090     2.0260 nv         1 FYN      -1.100900
     11 C1          83.7650   -24.3810    -0.1120 c5         1 FYN       0.263300
     12 C10         83.9510   -23.9790    -1.6150 c5         1 FYN       0.165300
     13 O2          84.1330   -25.0940    -2.5190 oh         1 FYN      -0.831000
     14 C3          85.1660   -22.9950    -1.4620 c5         1 FYN       0.191300
     15 O3          86.4000   -23.7160    -1.1600 os         1 FYN      -0.612400
     16 C7          84.7650   -22.2260    -0.1560 c5         1 FYN       0.133300
     17 O4          84.0370   -23.1890     0.6670 os         1 FYN      -0.502000
     18 C9          83.9020   -20.9440    -0.3820 c3         1 FYN       0.229600
     19 O5          82.5890   -21.2910    -0.8490 os         1 FYN      -0.630400
     20 P1          81.9320   -20.4310    -2.0350 p5         1 FYN       1.517800
     21 O11         82.0860   -18.9750    -1.7520 o          1 FYN      -0.877000
     22 O12         80.5010   -20.8170    -2.1880 o          1 FYN      -0.877000
     23 O6          82.8020   -21.0230    -3.2020 os         1 FYN      -0.708800
     24 P2          83.2920   -20.0390    -4.3290 p5         1 FYN       1.461800
     25 O21         83.6990   -20.8160    -5.5350 o          1 FYN      -0.825500
     26 O22         84.4200   -19.1900    -3.8460 o          1 FYN      -0.825500
     27 O7          81.9590   -19.1970    -4.6660 os         1 FYN      -0.630400
     28 CPB         82.0530   -17.7660    -4.7240 c3         1 FYN       0.246600
     29 CPA         80.6250   -17.1410    -4.7910 c3         1 FYN      -0.061000
     30 CP7         79.8060   -17.5110    -3.4980 c3         1 FYN       0.121300
     31 CP9         80.7770   -15.5970    -4.9260 c3         1 FYN      -0.077100
     32 CP8         79.9040   -17.6630    -6.0700 c3         1 FYN      -0.077100
     33 OP3         80.5230   -17.0720    -2.3010 oh         1 FYN      -0.758000
     34 CP6         78.3310   -16.9800    -3.5180 c          1 FYN       0.584100
     35 OP2         77.4050   -17.5590    -4.0760 o          1 FYN      -0.653100
     36 NP2         78.1290   -15.8310    -2.7860 ns         1 FYN      -0.516900
     37 CP5         76.8660   -15.1040    -2.6710 c3         1 FYN       0.126000
     38 CP4         76.5780   -14.2640    -3.9270 c3         1 FYN      -0.186400
     39 CP3         75.2830   -13.4780    -3.7590 c          1 FYN       0.597100
     40 OP1         74.1840   -14.0060    -3.8200 o          1 FYN      -0.596100
     41 NP1         75.4460   -12.1230    -3.5740 ns         1 FYN      -0.534900
     42 CP2         74.3520   -11.1560    -3.3980 c3         1 FYN       0.104000
     43 CP1         74.1060   -10.2620    -4.6350 c3         1 FYN       0.040600
     44 S           73.4260   -11.2020    -6.0840 ss         1 FYN      -0.389600
     45 P3          87.3140   -24.1460    -2.4070 p5         1 FYN       1.287900
     46 O31         87.7680   -22.9310    -3.1310 o          1 FYN      -0.899500
     47 O32         88.4850   -24.9130    -1.9090 o          1 FYN      -0.899500
     48 O33         86.4860   -25.0040    -3.2930 o          1 FYN      -0.899500
     49 CM1         74.9520   -11.9410    -6.7450 c          1 FYN       0.611500
     50 OM2         74.9490   -12.6760    -7.7240 o          1 FYN      -0.448100
     51 H8          81.1300   -23.6140    -0.8610 h5         1 FYN       0.138800
     52 H1          84.5060   -25.1490     0.1450 h2         1 FYN       0.091700
     53 H2          83.1060   -28.3860     3.1330 h5         1 FYN       0.009100
     54 H6N1        78.3920   -26.9520     1.3420 hn         1 FYN       0.477500
     55 H6N2        78.6920   -28.3180     2.3700 hn         1 FYN       0.477500
     56 H7          83.0780   -23.4100    -1.9550 h1         1 FYN       0.059700
     57 HA          85.1160   -25.0600    -2.8320 ho         1 FYN       0.616000
     58 H3          85.2930   -22.3250    -2.3260 h1         1 FYN       0.122700
     59 H4          85.6650   -21.9120     0.3900 h1         1 FYN       0.052700
     60 H5'1        84.4270   -20.2910    -1.0920 h1         1 FYN       0.019200
     61 H5'2        83.8260   -20.4020     0.5690 h1         1 FYN       0.019200
     62 HPB1        82.6200   -17.4670    -5.6150 h1         1 FYN       0.021700
     63 HPB2        82.5860   -17.3670    -3.8510 h1         1 FYN       0.021700
     64 HP7         79.6940   -18.6040    -3.4800 h1         1 FYN       0.127700
     65 HP91        81.3540   -15.3400    -5.8230 hc         1 FYN       0.021033
     66 HP92        81.3010   -15.1690    -4.0620 hc         1 FYN       0.021033
     67 HP93        79.8010   -15.1040    -5.0090 hc         1 FYN       0.021033
     68 HP81        79.6710   -18.7310    -5.9870 hc         1 FYN       0.021033
     69 HP82        80.5340   -17.5230    -6.9560 hc         1 FYN       0.021033
     70 HP83        78.9650   -17.1250    -6.2490 hc         1 FYN       0.021033
     71 HP3         81.1850   -17.8160    -2.0740 ho         1 FYN       0.560000
     72 HP2         78.9520   -15.4880    -2.3000 hn         1 FYN       0.350500
     73 HP51        76.9230   -14.4460    -1.7940 h1         1 FYN       0.050700
     74 HP52        76.0510   -15.8210    -2.5040 h1         1 FYN       0.050700
     75 HP41        76.4720   -14.9400    -4.7840 hc         1 FYN       0.070700
     76 HP42        77.4200   -13.5810    -4.0910 hc         1 FYN       0.070700
     77 HP1         76.4000   -11.7820    -3.5250 hn         1 FYN       0.307500
     78 HP21        74.6070   -10.5110    -2.5460 h1         1 FYN       0.061200
     79 HP22        73.4230   -11.6830    -3.1400 h1         1 FYN       0.061200
     80 HP11        75.0320    -9.7490    -4.9250 h1         1 FYN       0.061200
     81 HP12        73.3710    -9.4950    -4.3610 h1         1 FYN       0.061200
     82 HM1         75.8710   -11.6490    -6.2050 h5         1 FYN      -0.003800
@<TRIPOS>BOND
     1     1     2 1   
     2     1     5 2   
     3     1    51 1   
     4     2     3 1   
     5     2    11 1   
     6     3     4 ar  
     7     3     6 ar  
     8     4     5 1   
     9     4     9 ar  
    10     6     7 ar  
    11     7     8 ar  
    12     7    53 1   
    13     8     9 ar  
    14     9    10 1   
    15    10    54 1   
    16    10    55 1   
    17    11    12 1   
    18    11    17 1   
    19    11    52 1   
    20    12    13 1   
    21    12    14 1   
    22    12    56 1   
    23    13    57 1   
    24    14    15 1   
    25    14    16 1   
    26    14    58 1   
    27    15    45 1   
    28    16    17 1   
    29    16    18 1   
    30    16    59 1   
    31    18    19 1   
    32    18    60 1   
    33    18    61 1   
    34    19    20 1   
    35    20    21 1   
    36    20    22 1   
    37    20    23 1   
    38    23    24 1   
    39    24    25 1   
    40    24    26 1   
    41    24    27 1   
    42    27    28 1   
    43    28    29 1   
    44    28    62 1   
    45    28    63 1   
    46    29    30 1   
    47    29    31 1   
    48    29    32 1   
    49    30    33 1   
    50    30    34 1   
    51    30    64 1   
    52    31    65 1   
    53    31    66 1   
    54    31    67 1   
    55    32    68 1   
    56    32    69 1   
    57    32    70 1   
    58    33    71 1   
    59    34    35 2   
    60    34    36 1   
    61    36    37 1   
    62    36    72 1   
    63    37    38 1   
    64    37    73 1   
    65    37    74 1   
    66    38    39 1   
    67    38    75 1   
    68    38    76 1   
    69    39    40 2   
    70    39    41 1   
    71    41    42 1   
    72    41    77 1   
    73    42    43 1   
    74    42    78 1   
    75    42    79 1   
    76    43    44 1   
    77    43    80 1   
    78    43    81 1   
    79    44    49 1   
    80    45    46 1   
    81    45    47 1   
    82    45    48 1   
    83    49    50 2   
    84    49    82 1   
@<TRIPOS>SUBSTRUCTURE
     1 FYN         1 TEMP              0 ****  ****    0 ROOT
