@<TRIPOS>MOLECULE
FYO
   30    32     1     0     0
SMALL
No Charge or Current Charge


@<TRIPOS>ATOM
      1 NAA          7.1460     0.8900     0.2000 n1         1 FYO      -0.403000
      2 OAB         -6.1270     1.5120    -0.4220 o          1 FYO      -0.503000
      3 OAC         -4.6710    -2.4350     1.0540 o          1 FYO      -0.506000
      4 CAE          5.9940     0.6910     0.1550 cg         1 FYO       0.262700
      5 CAF         -3.7760     1.1880    -0.1830 ce         1 FYO      -0.271200
      6 CAG         -3.0310    -1.1780    -0.2050 c6         1 FYO      -0.138200
      7 CAH          2.4880    -1.1640    -0.1010 cc         1 FYO      -0.256200
      8 CAI          3.3640     1.1110     0.1330 cd         1 FYO      -0.220000
      9 NAJ         -0.7740     1.9620     0.1140 na         1 FYO      -0.164700
     10 NAK         -5.3910    -0.5800    -0.0060 ns         1 FYO      -0.473500
     11 NAL          4.8570    -0.8600    -0.0180 ns         1 FYO      -0.365100
     12 NAM         -0.2510    -0.1680    -0.0730 nd         1 FYO      -0.672000
     13 NAN          0.5790     1.9940     0.1500 nc         1 FYO      -0.502800
     14 CAO         -5.1950     0.7470    -0.2420 c          1 FYO       0.579200
     15 CAP         -4.4310    -1.4890     0.3210 c          1 FYO       0.581000
     16 CAQ          3.8420    -1.7720    -0.1270 c          1 FYO       0.554200
     17 CAR          4.5770     0.4840     0.1020 cc         1 FYO       0.168900
     18 CAS         -2.7110     0.3300    -0.1080 cf         1 FYO      -0.085000
     19 CAT          2.2320     0.2100     0.0220 cd         1 FYO      -0.046800
     20 CAU         -1.2910     0.7210    -0.0070 cd         1 FYO       0.455300
     21 CAV          0.8580     0.6860     0.0350 cd         1 FYO       0.579800
     22 HAF         -3.6250     2.2660    -0.1950 ha         1 FYO       0.205000
     23 HAG         -2.2970    -1.8260     0.2900 hc         1 FYO       0.115200
     24 HAGA        -3.0460    -1.4080    -1.2780 hc         1 FYO       0.115200
     25 HAH          1.6870    -1.8900    -0.1880 ha         1 FYO       0.230000
     26 HAI          3.2710     2.1890     0.2320 ha         1 FYO       0.224000
     27 HNAK        -6.3450    -0.8570     0.1670 hn         1 FYO       0.339500
     28 HNAL         5.8020    -1.2260    -0.0300 hn         1 FYO       0.339500
     29 HNAJ        -1.3310     2.8090     0.1780 hn         1 FYO       0.391000
     30 OAD          4.0540    -2.9680    -0.2350 o          1 FYO      -0.535000
@<TRIPOS>BOND
     1     1     4 3   
     2     2    14 2   
     3     3    15 2   
     4     4    17 1   
     5     5    14 1   
     6     5    18 2   
     7     5    22 1   
     8     6    15 1   
     9     6    18 1   
    10     6    23 1   
    11     6    24 1   
    12     7    16 1   
    13     7    19 2   
    14     7    25 1   
    15     8    17 2   
    16     8    19 1   
    17     8    26 1   
    18     9    13 1   
    19     9    20 1   
    20     9    29 1   
    21    10    14 1   
    22    10    15 1   
    23    10    27 1   
    24    11    16 1   
    25    11    17 1   
    26    11    28 1   
    27    12    20 2   
    28    12    21 1   
    29    13    21 2   
    30    16    30 2   
    31    18    20 1   
    32    19    21 1   
@<TRIPOS>SUBSTRUCTURE
     1 FYO         1 TEMP              0 ****  ****    0 ROOT
