@<TRIPOS>MOLECULE
FYO
   30    32     1     0     0
SMALL
abcg2


@<TRIPOS>ATOM
      1 NAA          6.6440     1.8780     0.0340 n1         1 FYO      -0.403000
      2 OAB         -5.9060     1.7440     0.0190 o          1 FYO      -0.503000
      3 OAC         -4.8240    -2.6270    -0.0480 o          1 FYO      -0.506000
      4 CAE          5.7150     1.2010     0.0220 cg         1 FYO       0.262700
      5 CAF         -3.6050     1.2590    -0.0010 ce         1 FYO      -0.271200
      6 CAG         -2.9770    -1.1330    -0.0430 c6         1 FYO      -0.138200
      7 CAH          2.4240    -1.3500    -0.0000 cc         1 FYO      -0.256200
      8 CAI          3.3130     0.8930     0.0010 cd         1 FYO      -0.220000
      9 NAJ         -0.7080     1.8860    -0.0210 na         1 FYO      -0.164700
     10 NAK         -5.3280    -0.4360    -0.0250 ns         1 FYO      -0.473500
     11 NAL          4.7680    -0.9800     0.0150 ns         1 FYO      -0.365100
     12 NAM         -0.2590    -0.2290    -0.0150 nd         1 FYO      -0.672000
     13 NAN          0.6110     1.8260    -0.0160 nc         1 FYO      -0.502800
     14 CAO         -5.0270     0.9100    -0.0010 c          1 FYO       0.579200
     15 CAP         -4.4400    -1.4800    -0.0380 c          1 FYO       0.581000
     16 CAQ          3.7540    -1.9170     0.0100 c          1 FYO       0.554200
     17 CAR          4.5590     0.3640     0.0120 cc         1 FYO       0.168900
     18 CAS         -2.6540     0.3220    -0.0200 cf         1 FYO      -0.085000
     19 CAT          2.2090    -0.0080    -0.0040 cd         1 FYO      -0.046800
     20 CAU         -1.2360     0.6510    -0.0190 cd         1 FYO       0.455300
     21 CAV          0.8520     0.5310    -0.0130 cd         1 FYO       0.579800
     22 HAF         -3.3930     2.3200     0.0180 ha         1 FYO       0.205000
     23 HAG         -2.5140    -1.6320     0.8130 hc         1 FYO       0.115200
     24 HAGA        -2.5300    -1.6000    -0.9260 hc         1 FYO       0.115200
     25 HAH          1.5960    -2.0460    -0.0040 ha         1 FYO       0.230000
     26 HAI          3.1760     1.9630    -0.0010 ha         1 FYO       0.224000
     27 HNAK        -6.3140    -0.6760    -0.0270 hn         1 FYO       0.339500
     28 HNAL         5.7170    -1.3340     0.0240 hn         1 FYO       0.339500
     29 HNAJ        -1.1710     2.7840    -0.0240 hn         1 FYO       0.391000
     30 OAD          4.0060    -3.1130     0.0140 o          1 FYO      -0.535000
@<TRIPOS>BOND
     1     1     4 3   
     2     2    14 2   
     3     3    15 2   
     4     4    17 1   
     5     5    14 1   
     6     5    18 2   
     7     5    22 1   
     8     6    15 1   
     9     6    18 1   
    10     6    23 1   
    11     6    24 1   
    12     7    16 1   
    13     7    19 2   
    14     7    25 1   
    15     8    17 2   
    16     8    19 1   
    17     8    26 1   
    18     9    13 1   
    19     9    20 1   
    20     9    29 1   
    21    10    14 1   
    22    10    15 1   
    23    10    27 1   
    24    11    16 1   
    25    11    17 1   
    26    11    28 1   
    27    12    20 2   
    28    12    21 1   
    29    13    21 2   
    30    16    30 2   
    31    18    20 1   
    32    19    21 1   
@<TRIPOS>SUBSTRUCTURE
     1 FYO         1 TEMP              0 ****  ****    0 ROOT
