@<TRIPOS>MOLECULE
FYP
   36    38     1     0     0
SMALL
abcg2


@<TRIPOS>ATOM
      1 C01          6.5290    -0.9680    -0.4190 c3         1 FYP      -0.096100
      2 C02          5.5460    -0.0580     0.2740 c3         1 FYP       0.166600
      3 C04          3.1960     0.1510     0.4380 c          1 FYP       0.540600
      4 C06          1.9170    -0.4630     0.0750 cc         1 FYP       0.206500
      5 C07          0.6680     0.0050     0.4010 cd         1 FYP      -0.145300
      6 C08          0.1130     1.1970     1.0880 c3         1 FYP       0.163300
      7 C10         -1.6490     1.6970    -0.5290 c          1 FYP       0.574600
      8 C12         -2.2820     0.3840    -0.1520 ca         1 FYP      -0.116600
      9 C13         -1.6020    -0.8310    -0.0350 ca         1 FYP       0.000800
     10 C15          0.5440    -1.8480    -0.7770 cd         1 FYP       0.409400
     11 C17         -2.3000    -2.0110     0.2010 ca         1 FYP      -0.097000
     12 C18         -3.6760    -2.0010     0.3210 ca         1 FYP      -0.123000
     13 C19         -4.3370    -0.7920     0.2100 ca         1 FYP       0.171000
     14 C20         -3.6690     0.3870    -0.0350 ca         1 FYP      -0.097000
     15 F21         -5.6680    -0.7650     0.3400 f          1 FYP      -0.165000
     16 N09         -0.5310     2.0700     0.1200 n          1 FYP      -0.395800
     17 N14         -0.1990    -0.8900    -0.1520 na         1 FYP      -0.070300
     18 N16          1.8140    -1.6170    -0.6550 nc         1 FYP      -0.615000
     19 O03          4.2240    -0.5310    -0.0330 os         1 FYP      -0.413100
     20 O05          3.2940     1.1650     1.0920 o          1 FYP      -0.514000
     21 O11         -2.1910     2.3830    -1.3820 o          1 FYP      -0.540000
     22 H1           7.5430    -0.6460    -0.1820 hc         1 FYP       0.048033
     23 H2           6.4230    -2.0010    -0.0880 hc         1 FYP       0.048033
     24 H3           6.4120    -0.9340    -1.5020 hc         1 FYP       0.048033
     25 H4           5.6940    -0.0710     1.3560 h1         1 FYP       0.046700
     26 H5           5.6600     0.9720    -0.0680 h1         1 FYP       0.046700
     27 H7          -0.6010     0.8960     1.8590 h1         1 FYP       0.086200
     28 H8           0.9010     1.7490     1.5870 h1         1 FYP       0.086200
     29 H9           0.0930    -2.6720    -1.3090 h5         1 FYP       0.067100
     30 H11         -1.7630    -2.9440     0.3080 ha         1 FYP       0.134000
     31 H12         -4.2200    -2.9160     0.5150 ha         1 FYP       0.143000
     32 H13         -4.2250     1.3100    -0.1380 ha         1 FYP       0.158000
     33 H14          0.9740     3.0250    -1.0110 h1         1 FYP       0.052033
     34 H15         -0.4920     3.9750    -0.7440 h1         1 FYP       0.052033
     35 H16          0.6440     3.7240     0.5820 h1         1 FYP       0.052033
     36 C22          0.1880     3.2610    -0.2910 c3         1 FYP       0.085300
@<TRIPOS>BOND
     1     1     2 1   
     2     1    22 1   
     3     1    23 1   
     4     1    24 1   
     5     2    19 1   
     6     2    25 1   
     7     2    26 1   
     8     3     4 1   
     9     3    19 1   
    10     3    20 2   
    11     4     5 2   
    12     4    18 1   
    13     5     6 1   
    14     5    17 1   
    15     6    16 1   
    16     6    27 1   
    17     6    28 1   
    18     7     8 1   
    19     7    16 1   
    20     7    21 2   
    21     8     9 ar  
    22     8    14 ar  
    23     9    11 ar  
    24     9    17 1   
    25    10    17 1   
    26    10    18 2   
    27    10    29 1   
    28    11    12 ar  
    29    11    30 1   
    30    12    13 ar  
    31    12    31 1   
    32    13    14 ar  
    33    13    15 1   
    34    14    32 1   
    35    16    36 1   
    36    33    36 1   
    37    34    36 1   
    38    35    36 1   
@<TRIPOS>SUBSTRUCTURE
     1 FYP         1 TEMP              0 ****  ****    0 ROOT
