@<TRIPOS>MOLECULE
FYP
   36    38     1     0     0
SMALL
No Charge or Current Charge


@<TRIPOS>ATOM
      1 C01          6.5930    -1.3470     0.0400 c3         1 FYP      -0.096100
      2 C02          5.5730    -0.3220     0.5630 c3         1 FYP       0.166600
      3 C04          3.1940     0.0780     0.3870 c          1 FYP       0.540600
      4 C06          1.8950    -0.4120    -0.2050 cc         1 FYP       0.206500
      5 C07          0.6680     0.1980    -0.0090 cd         1 FYP      -0.145300
      6 C08          0.2310     1.4370     0.7200 c3         1 FYP       0.163300
      7 C10         -1.9470     1.8510    -0.4640 c          1 FYP       0.574600
      8 C12         -2.3710     0.4230    -0.1680 ca         1 FYP      -0.116600
      9 C13         -1.5000    -0.7010    -0.2840 ca         1 FYP       0.000800
     10 C15          0.4700    -1.6450    -1.2950 cd         1 FYP       0.409400
     11 C17         -1.9820    -1.9830     0.0860 ca         1 FYP      -0.097000
     12 C18         -3.3090    -2.1600     0.5110 ca         1 FYP      -0.123000
     13 C19         -4.1720    -1.0620     0.5710 ca         1 FYP       0.171000
     14 C20         -3.7110     0.2160     0.2350 ca         1 FYP      -0.097000
     15 F21         -5.4520    -1.2340     0.9700 f          1 FYP      -0.165000
     16 N09         -0.6340     2.2630    -0.1440 n          1 FYP      -0.395800
     17 N14         -0.1930    -0.5440    -0.7820 na         1 FYP      -0.070300
     18 N16          1.7600    -1.5450    -0.9950 nc         1 FYP      -0.615000
     19 O03          4.2820    -0.6970     0.0520 os         1 FYP      -0.413100
     20 O05          3.2990     1.0690     1.1030 o          1 FYP      -0.514000
     21 O11         -2.7300     2.6320    -0.9910 o          1 FYP      -0.540000
     22 H1           7.5970    -1.1020     0.4050 hc         1 FYP       0.048033
     23 H2           6.3380    -2.3560     0.3850 hc         1 FYP       0.048033
     24 H3           6.6150    -1.3450    -1.0560 hc         1 FYP       0.048033
     25 H4           5.5780    -0.3290     1.6610 h1         1 FYP       0.046700
     26 H5           5.8540     0.6820     0.2190 h1         1 FYP       0.046700
     27 H7          -0.3250     1.1500     1.6230 h1         1 FYP       0.086200
     28 H8           1.0940     2.0270     1.0460 h1         1 FYP       0.086200
     29 H9          -0.0240    -2.4370    -1.8460 h5         1 FYP       0.067100
     30 H11         -1.3400    -2.8600     0.0480 ha         1 FYP       0.134000
     31 H12         -3.6700    -3.1480     0.7870 ha         1 FYP       0.143000
     32 H13         -4.3980     1.0560     0.3100 ha         1 FYP       0.158000
     33 H14         -0.4760     3.8820    -1.5090 h1         1 FYP       0.052033
     34 H15         -0.5980     4.3510     0.2130 h1         1 FYP       0.052033
     35 H16          0.9290     3.6800    -0.4350 h1         1 FYP       0.052033
     36 C22         -0.1660     3.6250    -0.4880 c3         1 FYP       0.085300
@<TRIPOS>BOND
     1     1     2 1   
     2     1    22 1   
     3     1    23 1   
     4     1    24 1   
     5     2    19 1   
     6     2    25 1   
     7     2    26 1   
     8     3     4 1   
     9     3    19 1   
    10     3    20 2   
    11     4     5 2   
    12     4    18 1   
    13     5     6 1   
    14     5    17 1   
    15     6    16 1   
    16     6    27 1   
    17     6    28 1   
    18     7     8 1   
    19     7    16 1   
    20     7    21 2   
    21     8     9 ar  
    22     8    14 ar  
    23     9    11 ar  
    24     9    17 1   
    25    10    17 1   
    26    10    18 2   
    27    10    29 1   
    28    11    12 ar  
    29    11    30 1   
    30    12    13 ar  
    31    12    31 1   
    32    13    14 ar  
    33    13    15 1   
    34    14    32 1   
    35    16    36 1   
    36    33    36 1   
    37    34    36 1   
    38    35    36 1   
@<TRIPOS>SUBSTRUCTURE
     1 FYP         1 TEMP              0 ****  ****    0 ROOT
