@<TRIPOS>MOLECULE
FYQ
   67    67     1     0     0
SMALL
abcg2


@<TRIPOS>ATOM
      1 CAN         -4.0330    -0.2780     0.6950 ca         1 FYQ      -0.085500
      2 CAP         -5.2690    -0.0490     0.1040 ca         1 FYQ      -0.219000
      3 CBH         -5.5210     1.1550    -0.5650 ca         1 FYQ       0.319100
      4 CAQ         -4.4940     2.1080    -0.5980 ca         1 FYQ      -0.219000
      5 CAO         -3.2680     1.8600    -0.0050 ca         1 FYQ      -0.085500
      6 CBG         -3.0060     0.6610     0.6560 ca         1 FYQ      -0.247300
      7 OAZ         -6.6620     1.4500    -1.1840 os         1 FYQ      -0.406500
      8 PBL         -8.2160     0.7400    -0.7760 p5         1 FYQ       1.249900
      9 OAK         -8.0970    -0.7110    -1.2140 o          1 FYQ      -0.896167
     10 OAM         -8.3210     0.9620     0.7220 o          1 FYQ      -0.896167
     11 OAL         -9.1070     1.6090    -1.6420 o          1 FYQ      -0.896167
     12 CAV         -1.6540     0.3870     1.2560 c3         1 FYQ       0.012900
     13 CBI         -0.5780     0.1710     0.1850 c3         1 FYQ      -0.117700
     14 CBE          0.8010    -0.0230     0.8100 c          1 FYQ       0.619100
     15 OAI          0.9840    -0.0530     2.0160 o          1 FYQ      -0.607100
     16 CAU         -0.9650    -0.9330    -0.8070 c3         1 FYQ      -0.145400
     17 CBD         -1.1810    -2.2840    -0.1610 c          1 FYQ       0.611100
     18 NAW         -2.2320    -2.9780    -0.6070 ns         1 FYQ      -0.490900
     19 CAA         -2.5600    -4.2960    -0.1180 c3         1 FYQ       0.098300
     20 OAH         -0.4210    -2.7250     0.6970 o          1 FYQ      -0.665100
     21 NAX          1.8090    -0.0950    -0.0830 ns         1 FYQ      -0.513900
     22 CBK          3.1960    -0.2880     0.2570 c3         1 FYQ       0.037700
     23 CBF          4.0470     0.6920    -0.5370 c          1 FYQ       0.596100
     24 OAJ          3.7450     1.0410    -1.6670 o          1 FYQ      -0.601100
     25 CAS          3.6650    -1.7160    -0.0680 c3         1 FYQ      -0.078400
     26 CAR          2.9660    -2.7350     0.8210 c3         1 FYQ      -0.169400
     27 CBA          3.2240    -4.1580     0.3840 c          1 FYQ       0.607100
     28 OAE          4.3440    -4.5630     0.1010 o          1 FYQ      -0.644100
     29 NAB          2.1320    -4.9390     0.3500 nt         1 FYQ      -0.608000
     30 N            5.1670     1.1050     0.0770 ns         1 FYQ      -0.484900
     31 CA           6.1910     1.8150    -0.6410 c3         1 FYQ       0.043700
     32 C            6.8250     0.9080    -1.7040 c          1 FYQ       0.586100
     33 O            6.8500    -0.3030    -1.5750 o          1 FYQ      -0.592100
     34 CB           7.2640     2.2890     0.3340 c3         1 FYQ      -0.175400
     35 CG           6.7150     3.3180     1.3070 c          1 FYQ       0.604100
     36 OD1          5.9750     4.2170     0.9340 o          1 FYQ      -0.589100
     37 ND2          7.1180     3.1710     2.5730 nt         1 FYQ      -0.609000
     38 NAD          7.3710     1.5650    -2.7330 nt         1 FYQ      -0.607000
     39 HAN         -3.8690    -1.2230     1.2020 ha         1 FYQ       0.065500
     40 HAP         -6.0270    -0.8180     0.1310 ha         1 FYQ       0.131000
     41 HAQ         -4.6690     3.0520    -1.1020 ha         1 FYQ       0.131000
     42 HAO         -2.4990     2.6240    -0.0530 ha         1 FYQ       0.065500
     43 HAV         -1.3540     1.2250     1.8890 hc         1 FYQ       0.044200
     44 HAVA        -1.7080    -0.4870     1.9090 hc         1 FYQ       0.044200
     45 HBI         -0.5090     1.0900    -0.4100 hc         1 FYQ       0.065700
     46 HAU         -1.8590    -0.6150    -1.3440 hc         1 FYQ       0.065700
     47 HAUA        -0.1920    -1.0580    -1.5710 hc         1 FYQ       0.065700
     48 HAA         -2.8040    -4.2820     0.9450 h1         1 FYQ       0.034033
     49 HAAA        -3.4250    -4.6590    -0.6640 h1         1 FYQ       0.034033
     50 HNAX         1.5990    -0.0150    -1.0660 hn         1 FYQ       0.326500
     51 HBK          3.3120    -0.1030     1.3260 h1         1 FYQ       0.085700
     52 HAS          3.4510    -1.9140    -1.1220 hc         1 FYQ       0.060200
     53 HASA         4.7470    -1.7830     0.0530 hc         1 FYQ       0.060200
     54 HAR          3.3280    -2.6310     1.8490 hc         1 FYQ       0.082200
     55 HARA         1.8950    -2.5430     0.8470 hc         1 FYQ       0.082200
     56 HNAB         1.2130    -4.5630     0.5170 hn         1 FYQ       0.319500
     57 HNAA         2.1990    -5.9050     0.0740 hn         1 FYQ       0.319500
     58 HN           5.4050     0.6960     0.9680 hn         1 FYQ       0.318500
     59 HA           5.7510     2.6890    -1.1240 h1         1 FYQ       0.102700
     60 HB           7.7080     1.4360     0.8530 hc         1 FYQ       0.064700
     61 HBA          8.0720     2.7670    -0.2250 hc         1 FYQ       0.064700
     62 HND2         7.7310     2.4250     2.8540 hn         1 FYQ       0.313500
     63 HNDA         6.8450     3.8370     3.2780 hn         1 FYQ       0.313500
     64 HNAD         7.2840     2.5620    -2.8380 hn         1 FYQ       0.312500
     65 HNAC         7.8580     1.0660    -3.4590 hn         1 FYQ       0.312500
     66 H30         -2.8510    -2.5490    -1.2740 hn         1 FYQ       0.340500
     67 H31         -1.7370    -4.9950    -0.2710 h1         1 FYQ       0.034033
@<TRIPOS>BOND
     1     1     2 ar  
     2     1     6 ar  
     3     1    39 1   
     4     2     3 ar  
     5     2    40 1   
     6     3     4 ar  
     7     3     7 1   
     8     4     5 ar  
     9     4    41 1   
    10     5     6 ar  
    11     5    42 1   
    12     6    12 1   
    13     7     8 1   
    14     8     9 1   
    15     8    10 1   
    16     8    11 1   
    17    12    13 1   
    18    12    43 1   
    19    12    44 1   
    20    13    14 1   
    21    13    16 1   
    22    13    45 1   
    23    14    15 2   
    24    14    21 1   
    25    16    17 1   
    26    16    46 1   
    27    16    47 1   
    28    17    18 1   
    29    17    20 2   
    30    18    19 1   
    31    18    66 1   
    32    19    48 1   
    33    19    49 1   
    34    19    67 1   
    35    21    22 1   
    36    21    50 1   
    37    22    23 1   
    38    22    25 1   
    39    22    51 1   
    40    23    24 2   
    41    23    30 1   
    42    25    26 1   
    43    25    52 1   
    44    25    53 1   
    45    26    27 1   
    46    26    54 1   
    47    26    55 1   
    48    27    28 2   
    49    27    29 1   
    50    29    56 1   
    51    29    57 1   
    52    30    31 1   
    53    30    58 1   
    54    31    32 1   
    55    31    34 1   
    56    31    59 1   
    57    32    33 2   
    58    32    38 1   
    59    34    35 1   
    60    34    60 1   
    61    34    61 1   
    62    35    36 2   
    63    35    37 1   
    64    37    62 1   
    65    37    63 1   
    66    38    64 1   
    67    38    65 1   
@<TRIPOS>SUBSTRUCTURE
     1 FYQ         1 TEMP              0 ****  ****    0 ROOT
