@<TRIPOS>MOLECULE
FYQ
   67    67     1     0     0
SMALL
No Charge or Current Charge


@<TRIPOS>ATOM
      1 CAN         -3.9840     0.0520     1.0900 ca         1 FYQ      -0.085500
      2 CAP         -5.2770     0.3360     0.6200 ca         1 FYQ      -0.219000
      3 CBH         -5.4630     1.2390    -0.4480 ca         1 FYQ       0.319100
      4 CAQ         -4.3400     1.8490    -1.0310 ca         1 FYQ      -0.219000
      5 CAO         -3.0460     1.5660    -0.5640 ca         1 FYQ      -0.085500
      6 CBG         -2.8600     0.6590     0.4960 ca         1 FYQ      -0.247300
      7 OAZ         -6.6950     1.5650    -0.9570 os         1 FYQ      -0.406500
      8 PBL         -8.1430     1.0340    -0.4870 p5         1 FYQ       1.249900
      9 OAK         -8.2260    -0.4460    -0.6440 o          1 FYQ      -0.896167
     10 OAM         -8.3880     1.3980     0.9370 o          1 FYQ      -0.896167
     11 OAL         -9.1900     1.6690    -1.3350 o          1 FYQ      -0.896167
     12 CAV         -1.4550     0.3400     1.0080 c3         1 FYQ       0.012900
     13 CBI         -0.5020    -0.2400    -0.0750 c3         1 FYQ      -0.117700
     14 CBE          0.9010    -0.5180     0.5050 c          1 FYQ       0.619100
     15 OAI          1.0800    -1.0720     1.5800 o          1 FYQ      -0.607100
     16 CAU         -1.0670    -1.4840    -0.8370 c3         1 FYQ      -0.145400
     17 CBD         -1.2280    -2.7350     0.0330 c          1 FYQ       0.611100
     18 NAW         -2.4860    -2.9300     0.5450 ns         1 FYQ      -0.490900
     19 CAA         -2.8700    -4.0600     1.3900 c3         1 FYQ       0.098300
     20 OAH         -0.3170    -3.5330     0.2110 o          1 FYQ      -0.665100
     21 NAX          1.9480    -0.0810    -0.2740 ns         1 FYQ      -0.513900
     22 CBK          3.3780    -0.4040    -0.0560 c3         1 FYQ       0.037700
     23 CBF          4.2730     0.7620    -0.5730 c          1 FYQ       0.596100
     24 OAJ          3.8630     1.6420    -1.3190 o          1 FYQ      -0.601100
     25 CAS          3.7370    -1.7490    -0.7560 c3         1 FYQ      -0.078400
     26 CAR          3.4020    -3.0200     0.0710 c3         1 FYQ      -0.169400
     27 CBA          3.3390    -4.2740    -0.8000 c          1 FYQ       0.607100
     28 OAE          4.3260    -4.8250    -1.2570 o          1 FYQ      -0.644100
     29 NAB          2.1080    -4.7750    -1.0290 nt         1 FYQ      -0.608000
     30 N            5.5790     0.7380    -0.1240 ns         1 FYQ      -0.484900
     31 CA           6.6260     1.7240    -0.4810 c3         1 FYQ       0.043700
     32 C            7.9810     0.9970    -0.7470 c          1 FYQ       0.586100
     33 O            8.1520    -0.2020    -0.5820 o          1 FYQ      -0.592100
     34 CB           6.7510     2.8370     0.5970 c3         1 FYQ      -0.175400
     35 CG           5.4710     3.6600     0.7410 c          1 FYQ       0.604100
     36 OD1          5.1800     4.5740    -0.0110 o          1 FYQ      -0.589100
     37 ND2          4.6720     3.3490     1.7840 nt         1 FYQ      -0.609000
     38 NAD          9.0100     1.7640    -1.1750 nt         1 FYQ      -0.607000
     39 HAN         -3.8590    -0.6400     1.9200 ha         1 FYQ       0.065500
     40 HAP         -6.1240    -0.1470     1.0950 ha         1 FYQ       0.131000
     41 HAQ         -4.4770     2.5480    -1.8510 ha         1 FYQ       0.131000
     42 HAO         -2.1920     2.0550    -1.0260 ha         1 FYQ       0.065500
     43 HAV         -1.0050     1.2540     1.4170 hc         1 FYQ       0.044200
     44 HAVA        -1.5130    -0.3640     1.8470 hc         1 FYQ       0.044200
     45 HBI         -0.3730     0.5190    -0.8560 hc         1 FYQ       0.065700
     46 HAU         -2.0430    -1.2030    -1.2480 hc         1 FYQ       0.065700
     47 HAUA        -0.3810    -1.7230    -1.6580 hc         1 FYQ       0.065700
     48 HAA         -2.2470    -4.0720     2.2940 h1         1 FYQ       0.034033
     49 HAAA        -3.9240    -3.9600     1.6780 h1         1 FYQ       0.034033
     50 HNAX         1.7040     0.4250    -1.1190 hn         1 FYQ       0.326500
     51 HBK          3.5740    -0.4900     1.0220 h1         1 FYQ       0.085700
     52 HAS          3.2220    -1.7900    -1.7250 hc         1 FYQ       0.060200
     53 HASA         4.8100    -1.7740    -0.9860 hc         1 FYQ       0.060200
     54 HAR          4.1730    -3.1560     0.8370 hc         1 FYQ       0.082200
     55 HARA         2.4300    -2.8950     0.5530 hc         1 FYQ       0.082200
     56 HNAB         1.2950    -4.3290    -0.6170 hn         1 FYQ       0.319500
     57 HNAA         2.0090    -5.6080    -1.5870 hn         1 FYQ       0.319500
     58 HN           5.8490    -0.0520     0.4530 hn         1 FYQ       0.318500
     59 HA           6.3560     2.1970    -1.4350 h1         1 FYQ       0.102700
     60 HB           6.9880     2.3500     1.5510 hc         1 FYQ       0.064700
     61 HBA          7.5600     3.5200     0.3160 hc         1 FYQ       0.064700
     62 HND2         4.9280     2.6010     2.4120 hn         1 FYQ       0.313500
     63 HNDA         3.8210     3.8720     1.9280 hn         1 FYQ       0.313500
     64 HNAD         8.8830     2.7560    -1.3170 hn         1 FYQ       0.312500
     65 HNAC         9.9050     1.3320    -1.3550 hn         1 FYQ       0.312500
     66 H30         -3.1750    -2.2140     0.3430 hn         1 FYQ       0.340500
     67 H31         -2.7310    -4.9980     0.8370 h1         1 FYQ       0.034033
@<TRIPOS>BOND
     1     1     2 ar  
     2     1     6 ar  
     3     1    39 1   
     4     2     3 ar  
     5     2    40 1   
     6     3     4 ar  
     7     3     7 1   
     8     4     5 ar  
     9     4    41 1   
    10     5     6 ar  
    11     5    42 1   
    12     6    12 1   
    13     7     8 1   
    14     8     9 1   
    15     8    10 1   
    16     8    11 1   
    17    12    13 1   
    18    12    43 1   
    19    12    44 1   
    20    13    14 1   
    21    13    16 1   
    22    13    45 1   
    23    14    15 2   
    24    14    21 1   
    25    16    17 1   
    26    16    46 1   
    27    16    47 1   
    28    17    18 1   
    29    17    20 2   
    30    18    19 1   
    31    18    66 1   
    32    19    48 1   
    33    19    49 1   
    34    19    67 1   
    35    21    22 1   
    36    21    50 1   
    37    22    23 1   
    38    22    25 1   
    39    22    51 1   
    40    23    24 2   
    41    23    30 1   
    42    25    26 1   
    43    25    52 1   
    44    25    53 1   
    45    26    27 1   
    46    26    54 1   
    47    26    55 1   
    48    27    28 2   
    49    27    29 1   
    50    29    56 1   
    51    29    57 1   
    52    30    31 1   
    53    30    58 1   
    54    31    32 1   
    55    31    34 1   
    56    31    59 1   
    57    32    33 2   
    58    32    38 1   
    59    34    35 1   
    60    34    60 1   
    61    34    61 1   
    62    35    36 2   
    63    35    37 1   
    64    37    62 1   
    65    37    63 1   
    66    38    64 1   
    67    38    65 1   
@<TRIPOS>SUBSTRUCTURE
     1 FYQ         1 TEMP              0 ****  ****    0 ROOT
