@<TRIPOS>MOLECULE
FYR
   25    26     1     0     0
SMALL
No Charge or Current Charge


@<TRIPOS>ATOM
      1 C01         10.9330    24.1110    25.6270 ca         1 FYR      -0.190000
      2 C02         10.2920    23.0300    24.9760 cp         1 FYR      -0.027000
      3 C03          8.9200    22.8250    25.2570 ca         1 FYR      -0.198000
      4 C04          8.2230    23.6570    26.1440 ca         1 FYR       0.209100
      5 C05          8.8680    24.7330    26.7910 ca         1 FYR      -0.260600
      6 C06         10.2390    24.9470    26.5180 ca         1 FYR      -0.039000
      7 C07          8.1320    25.6430    27.7520 c          1 FYR       0.723600
      8 O08          6.9070    23.4120    26.3700 oh         1 FYR      -0.634100
      9 O09          8.7460    26.5560    28.2820 o          1 FYR      -0.696000
     10 O10          6.9460    25.4220    27.9580 o          1 FYR      -0.696000
     11 C11         11.0360    22.1390    24.0270 cp         1 FYR       0.004000
     12 C12         12.0730    22.6480    23.2020 ca         1 FYR      -0.107000
     13 C13         12.7700    21.8130    22.3110 ca         1 FYR      -0.120000
     14 C14         12.4470    20.4500    22.2270 ca         1 FYR      -0.132000
     15 C15         11.4260    19.9220    23.0320 ca         1 FYR      -0.120000
     16 C16         10.7280    20.7580    23.9220 ca         1 FYR      -0.107000
     17 H1          11.9890    24.2990    25.4530 ha         1 FYR       0.091000
     18 H2           8.3840    22.0160    24.7690 ha         1 FYR       0.104000
     19 H3          10.7770    25.7630    26.9970 ha         1 FYR       0.120000
     20 H4           6.6380    24.1230    27.0220 ho         1 FYR       0.550000
     21 H6          12.3300    23.7030    23.2430 ha         1 FYR       0.117500
     22 H7          13.5590    22.2250    21.6860 ha         1 FYR       0.098500
     23 H8          12.9870    19.8030    21.5380 ha         1 FYR       0.096000
     24 H9          11.1760    18.8650    22.9710 ha         1 FYR       0.098500
     25 H10          9.9500    20.3270    24.5460 ha         1 FYR       0.117500
@<TRIPOS>BOND
     1     1     2 ar  
     2     1     6 ar  
     3     1    17 1   
     4     2     3 ar  
     5     2    11 1   
     6     3     4 ar  
     7     3    18 1   
     8     4     5 ar  
     9     4     8 1   
    10     5     6 ar  
    11     5     7 1   
    12     6    19 1   
    13     7     9 1   
    14     7    10 1   
    15     8    20 1   
    16    11    12 ar  
    17    11    16 ar  
    18    12    13 ar  
    19    12    21 1   
    20    13    14 ar  
    21    13    22 1   
    22    14    15 ar  
    23    14    23 1   
    24    15    16 ar  
    25    15    24 1   
    26    16    25 1   
@<TRIPOS>SUBSTRUCTURE
     1 FYR         1 TEMP              0 ****  ****    0 ROOT
