@<TRIPOS>MOLECULE
FYR
   25    26     1     0     0
SMALL
bcc


@<TRIPOS>ATOM
      1 C01         10.9660    24.0690    25.6480 ca         1 FYR      -0.208000
      2 C02         10.3050    23.0230    24.9920 cp         1 FYR      -0.027000
      3 C03          8.9500    22.8250    25.2320 ca         1 FYR      -0.216000
      4 C04          8.2440    23.6520    26.1100 ca         1 FYR       0.209100
      5 C05          8.9110    24.7060    26.7650 ca         1 FYR      -0.260600
      6 C06         10.2680    24.8860    26.5180 ca         1 FYR      -0.057000
      7 C07          8.1550    25.6100    27.7040 c          1 FYR       0.934200
      8 O08          6.9470    23.4420    26.3090 oh         1 FYR      -0.595100
      9 O09          8.7520    26.5300    28.2690 o          1 FYR      -0.801300
     10 O10          6.9190    25.3410    27.8410 o          1 FYR      -0.801300
     11 C11         11.0320    22.1450    24.0510 cp         1 FYR       0.004000
     12 C12         12.0170    22.6630    23.2080 ca         1 FYR      -0.125000
     13 C13         12.6950    21.8440    22.3160 ca         1 FYR      -0.138000
     14 C14         12.4030    20.4880    22.2510 ca         1 FYR      -0.150000
     15 C15         11.4270    19.9600    23.0860 ca         1 FYR      -0.138000
     16 C16         10.7480    20.7800    23.9750 ca         1 FYR      -0.125000
     17 H1          12.0260    24.2260    25.4950 ha         1 FYR       0.109000
     18 H2           8.4120    22.0360    24.7200 ha         1 FYR       0.122000
     19 H3          10.7870    25.6880    27.0280 ha         1 FYR       0.138000
     20 H4           6.6900    24.1870    26.9730 ho         1 FYR       0.511000
     21 H6          12.2440    23.7220    23.2320 ha         1 FYR       0.135500
     22 H7          13.4480    22.2700    21.6650 ha         1 FYR       0.116500
     23 H8          12.9310    19.8490    21.5550 ha         1 FYR       0.114000
     24 H9          11.1960    18.9030    23.0490 ha         1 FYR       0.116500
     25 H10         10.0030    20.3470    24.6310 ha         1 FYR       0.135500
@<TRIPOS>BOND
     1     1     2 ar  
     2     1     6 ar  
     3     1    17 1   
     4     2     3 ar  
     5     2    11 1   
     6     3     4 ar  
     7     3    18 1   
     8     4     5 ar  
     9     4     8 1   
    10     5     6 ar  
    11     5     7 1   
    12     6    19 1   
    13     7     9 1   
    14     7    10 1   
    15     8    20 1   
    16    11    12 ar  
    17    11    16 ar  
    18    12    13 ar  
    19    12    21 1   
    20    13    14 ar  
    21    13    22 1   
    22    14    15 ar  
    23    14    23 1   
    24    15    16 ar  
    25    15    24 1   
    26    16    25 1   
@<TRIPOS>SUBSTRUCTURE
     1 FYR         1 TEMP              0 ****  ****    0 ROOT
