@<TRIPOS>MOLECULE
FYS
   47    49     1     0     0
SMALL
bcc


@<TRIPOS>ATOM
      1 CAB          0.2120    -3.8910     0.8680 c3         1 FYS      -0.089100
      2 OAD         -6.2250    -0.3790     0.2220 oh         1 FYS      -0.495100
      3 CAE          3.7760    -1.1120     1.3990 ca         1 FYS      -0.190500
      4 CAF          3.6550    -1.2210    -0.9970 ca         1 FYS      -0.190500
      5 CAG         -4.0700     0.0100     1.0790 ca         1 FYS      -0.191750
      6 CAH         -4.3080    -0.7280    -1.1930 ca         1 FYS      -0.191750
      7 CAI          0.7830     2.8740     1.1690 ca         1 FYS      -0.191750
      8 CAJ          0.5430     3.2560    -1.1880 ca         1 FYS      -0.191750
      9 CAK          2.3930    -1.1890     1.4570 ca         1 FYS      -0.084500
     10 CAL          2.2730    -1.2990    -0.9150 ca         1 FYS      -0.084500
     11 CAM         -2.6950     0.0350     0.9200 ca         1 FYS      -0.082750
     12 CAN         -2.9270    -0.6990    -1.3320 ca         1 FYS      -0.082750
     13 CAO          0.3230     1.5790     0.9980 ca         1 FYS      -0.082750
     14 CAP          0.0840     1.9550    -1.3380 ca         1 FYS      -0.082750
     15 CAR         -0.3730    -2.7850     0.0020 c3         1 FYS      -0.071400
     16 OAS          1.3530     4.9780     0.2880 oh         1 FYS      -0.495100
     17 CAT          0.1090    -1.3820     0.3960 c3         1 FYS      -0.001400
     18 CAU         -0.5880    -0.3030    -0.4660 c3         1 FYS       0.048900
     19 CAV          4.4170    -1.1250     0.1640 ca         1 FYS       0.135100
     20 CAW         -4.8900    -0.3730     0.0190 ca         1 FYS       0.137600
     21 CAX          0.8960     3.7250     0.0730 ca         1 FYS       0.137600
     22 CAY          1.6130    -1.2810     0.3090 ca         1 FYS      -0.105300
     23 CAZ         -2.0930    -0.3200    -0.2870 ca         1 FYS      -0.106300
     24 CBA         -0.0390     1.0910    -0.2560 ca         1 FYS      -0.106300
     25 H1          -0.2000    -4.8610     0.5890 hc         1 FYS       0.034033
     26 H2           1.2970    -3.9520     0.7720 hc         1 FYS       0.034033
     27 H3          -0.0140    -3.7280     1.9240 hc         1 FYS       0.034033
     28 H4           6.0870    -1.0480    -0.7610 ho         1 FYS       0.423000
     29 H5          -6.6810    -0.6650    -0.5770 ho         1 FYS       0.424000
     30 H6           4.3600    -1.0370     2.3080 ha         1 FYS       0.137000
     31 H7           4.1390    -1.2340    -1.9680 ha         1 FYS       0.137000
     32 H8          -4.5130     0.2930     2.0260 ha         1 FYS       0.137500
     33 H9          -4.9260    -1.0270    -2.0320 ha         1 FYS       0.137500
     34 H10          1.0620     3.2270     2.1550 ha         1 FYS       0.137500
     35 H11          0.6280     3.8990    -2.0570 ha         1 FYS       0.137500
     36 H12          1.9100    -1.1720     2.4280 ha         1 FYS       0.127500
     37 H13          1.7060    -1.3740    -1.8370 ha         1 FYS       0.127500
     38 H14         -2.0900     0.3470     1.7630 ha         1 FYS       0.129000
     39 H15         -2.4930    -0.9870    -2.2820 ha         1 FYS       0.129000
     40 H16          0.2590     0.9410     1.8710 ha         1 FYS       0.129000
     41 H17         -0.1860     1.6100    -2.3290 ha         1 FYS       0.129000
     42 H18         -0.1260    -2.9670    -1.0490 hc         1 FYS       0.042200
     43 H19         -1.4630    -2.8180     0.0700 hc         1 FYS       0.042200
     44 H20          1.4060     5.4620    -0.5440 ho         1 FYS       0.424000
     45 H21         -0.1780    -1.2260     1.4430 hc         1 FYS       0.052700
     46 H22         -0.3990    -0.5660    -1.5130 hc         1 FYS       0.050700
     47 OAC          5.7660    -1.0430     0.1470 oh         1 FYS      -0.496100
@<TRIPOS>BOND
     1     1    15 1   
     2     1    25 1   
     3     1    26 1   
     4     1    27 1   
     5     2    20 1   
     6     2    29 1   
     7     3     9 ar  
     8     3    19 ar  
     9     3    30 1   
    10     4    10 ar  
    11     4    19 ar  
    12     4    31 1   
    13     5    11 ar  
    14     5    20 ar  
    15     5    32 1   
    16     6    12 ar  
    17     6    20 ar  
    18     6    33 1   
    19     7    13 ar  
    20     7    21 ar  
    21     7    34 1   
    22     8    14 ar  
    23     8    21 ar  
    24     8    35 1   
    25     9    22 ar  
    26     9    36 1   
    27    10    22 ar  
    28    10    37 1   
    29    11    23 ar  
    30    11    38 1   
    31    12    23 ar  
    32    12    39 1   
    33    13    24 ar  
    34    13    40 1   
    35    14    24 ar  
    36    14    41 1   
    37    15    17 1   
    38    15    42 1   
    39    15    43 1   
    40    16    21 1   
    41    16    44 1   
    42    17    18 1   
    43    17    22 1   
    44    17    45 1   
    45    18    23 1   
    46    18    24 1   
    47    18    46 1   
    48    19    47 1   
    49    28    47 1   
@<TRIPOS>SUBSTRUCTURE
     1 FYS         1 TEMP              0 ****  ****    0 ROOT
