@<TRIPOS>MOLECULE
FYS
   47    49     1     0     0
SMALL
No Charge or Current Charge


@<TRIPOS>ATOM
      1 CAB          0.2790    -3.9450     0.9640 c3         1 FYS      -0.089100
      2 OAD         -6.3030    -0.3720     0.1280 oh         1 FYS      -0.534100
      3 CAE          3.8270    -0.8930     1.3270 ca         1 FYS      -0.172500
      4 CAF          3.6810    -1.3540    -1.0530 ca         1 FYS      -0.172500
      5 CAG         -4.1370    -0.2320     1.1300 ca         1 FYS      -0.173750
      6 CAH         -4.3590    -0.4740    -1.2760 ca         1 FYS      -0.173750
      7 CAI          0.6740     2.9220     1.2310 ca         1 FYS      -0.173750
      8 CAJ          0.6540     3.2310    -1.1770 ca         1 FYS      -0.173750
      9 CAK          2.4310    -1.0040     1.4370 ca         1 FYS      -0.066500
     10 CAL          2.2840    -1.4660    -0.9460 ca         1 FYS      -0.066500
     11 CAM         -2.7370    -0.2180     1.0030 ca         1 FYS      -0.064750
     12 CAN         -2.9590    -0.4600    -1.4060 ca         1 FYS      -0.064750
     13 CAO          0.1830     1.6140     1.0710 ca         1 FYS      -0.064750
     14 CAP          0.1640     1.9240    -1.3400 ca         1 FYS      -0.064750
     15 CAR         -0.3650    -2.8460     0.0920 c3         1 FYS      -0.071400
     16 OAS          1.3850     4.9950     0.2770 oh         1 FYS      -0.534100
     17 CAT          0.1200    -1.4070     0.4300 c3         1 FYS      -0.001400
     18 CAU         -0.6080    -0.3240    -0.4320 c3         1 FYS       0.048900
     19 CAV          4.4520    -1.0660     0.0840 ca         1 FYS       0.135100
     20 CAW         -4.9470    -0.3600    -0.0070 ca         1 FYS       0.137600
     21 CAX          0.9100     3.7280     0.1100 ca         1 FYS       0.137600
     22 CAY          1.6460    -1.2900     0.3010 ca         1 FYS      -0.105300
     23 CAZ         -2.1340    -0.3370    -0.2680 ca         1 FYS      -0.106300
     24 CBA         -0.0710     1.0990    -0.2200 ca         1 FYS      -0.106300
     25 H1          -0.1460    -4.9250     0.7150 hc         1 FYS       0.034033
     26 H2           1.3620    -3.9950     0.8010 hc         1 FYS       0.034033
     27 H3           0.0960    -3.7530     2.0280 hc         1 FYS       0.034033
     28 H4           6.0640    -1.1070    -0.9460 ho         1 FYS       0.462000
     29 H5          -6.7020    -0.4670    -0.7640 ho         1 FYS       0.463000
     30 H6           4.4240    -0.6710     2.2080 ha         1 FYS       0.119000
     31 H7           4.1560    -1.4910    -2.0210 ha         1 FYS       0.119000
     32 H8          -4.5930    -0.1410     2.1130 ha         1 FYS       0.119500
     33 H9          -4.9780    -0.5710    -2.1640 ha         1 FYS       0.119500
     34 H10          0.8690     3.3080     2.2280 ha         1 FYS       0.119500
     35 H11          0.8310     3.8500    -2.0530 ha         1 FYS       0.119500
     36 H12          1.9600    -0.8670     2.4090 ha         1 FYS       0.109500
     37 H13          1.7000    -1.6910    -1.8350 ha         1 FYS       0.109500
     38 H14         -2.1280    -0.1120     1.8960 ha         1 FYS       0.111000
     39 H15         -2.5170    -0.5470    -2.3960 ha         1 FYS       0.111000
     40 H16          0.0040     1.0090     1.9550 ha         1 FYS       0.111000
     41 H17         -0.0330     1.5510    -2.3430 ha         1 FYS       0.111000
     42 H18         -0.1660    -3.0670    -0.9640 hc         1 FYS       0.042200
     43 H19         -1.4520    -2.9050     0.2230 hc         1 FYS       0.042200
     44 H20          1.4870     5.4060    -0.6070 ho         1 FYS       0.463000
     45 H21         -0.1500    -1.2360     1.4780 hc         1 FYS       0.052700
     46 H22         -0.3910    -0.5960    -1.4720 hc         1 FYS       0.050700
     47 OAC          5.8060    -0.9560    -0.0120 oh         1 FYS      -0.535100
@<TRIPOS>BOND
     1     1    15 1   
     2     1    25 1   
     3     1    26 1   
     4     1    27 1   
     5     2    20 1   
     6     2    29 1   
     7     3     9 ar  
     8     3    19 ar  
     9     3    30 1   
    10     4    10 ar  
    11     4    19 ar  
    12     4    31 1   
    13     5    11 ar  
    14     5    20 ar  
    15     5    32 1   
    16     6    12 ar  
    17     6    20 ar  
    18     6    33 1   
    19     7    13 ar  
    20     7    21 ar  
    21     7    34 1   
    22     8    14 ar  
    23     8    21 ar  
    24     8    35 1   
    25     9    22 ar  
    26     9    36 1   
    27    10    22 ar  
    28    10    37 1   
    29    11    23 ar  
    30    11    38 1   
    31    12    23 ar  
    32    12    39 1   
    33    13    24 ar  
    34    13    40 1   
    35    14    24 ar  
    36    14    41 1   
    37    15    17 1   
    38    15    42 1   
    39    15    43 1   
    40    16    21 1   
    41    16    44 1   
    42    17    18 1   
    43    17    22 1   
    44    17    45 1   
    45    18    23 1   
    46    18    24 1   
    47    18    46 1   
    48    19    47 1   
    49    28    47 1   
@<TRIPOS>SUBSTRUCTURE
     1 FYS         1 TEMP              0 ****  ****    0 ROOT
