@<TRIPOS>MOLECULE
FYU
   14    14     1     0     0
SMALL
No Charge or Current Charge


@<TRIPOS>ATOM
      1 N1           1.4400     1.1920    -0.0110 ns         1 FYU      -0.506600
      2 N3           0.9660    -1.0390    -0.0150 ns         1 FYU      -0.474500
      3 C4          -0.3860    -0.8810    -0.0040 c          1 FYU       0.605200
      4 C5          -0.8220     0.5270     0.0050 cc         1 FYU      -0.391400
      5 C6           0.1060     1.5470     0.0010 cd         1 FYU       0.054600
      6 O4          -1.1220    -1.8530    -0.0010 o          1 FYU      -0.483000
      7 C2           1.9240    -0.0820    -0.0190 c          1 FYU       0.617000
      8 O2           3.1120    -0.3340    -0.0300 o          1 FYU      -0.534000
      9 CM5         -2.2540     0.8770     0.0180 c          1 FYU       0.599100
     10 O3          -3.1860     0.0830     0.0220 o          1 FYU      -0.483100
     11 H1           1.2970    -1.9900    -0.0210 hn         1 FYU       0.348500
     12 H3          -0.1090     2.6170     0.0070 h4         1 FYU       0.208000
     13 H4          -2.4590     1.9700     0.0230 h4         1 FYU      -0.024800
     14 H5           2.1660     1.9030    -0.0140 hn         1 FYU       0.466000
@<TRIPOS>BOND
     1     1     5 1   
     2     1     7 1   
     3     1    14 1   
     4     2     3 1   
     5     2     7 1   
     6     2    11 1   
     7     3     4 1   
     8     3     6 2   
     9     4     5 2   
    10     4     9 1   
    11     5    12 1   
    12     7     8 2   
    13     9    10 2   
    14     9    13 1   
@<TRIPOS>SUBSTRUCTURE
     1 FYU         1 TEMP              0 ****  ****    0 ROOT
