@<TRIPOS>MOLECULE
FYU
   14    14     1     0     0
SMALL
abcg2


@<TRIPOS>ATOM
      1 N1           1.4230     1.2070    -0.0100 ns         1 FYU      -0.506600
      2 N3           0.9770    -1.0510    -0.0150 ns         1 FYU      -0.474500
      3 C4          -0.4050    -0.8950    -0.0030 c          1 FYU       0.605200
      4 C5          -0.8360     0.4940     0.0050 cc         1 FYU      -0.391400
      5 C6           0.1110     1.4700     0.0010 cd         1 FYU       0.054600
      6 O4          -1.1250    -1.8690    -0.0010 o          1 FYU      -0.483000
      7 C2           1.9370    -0.0760    -0.0190 c          1 FYU       0.617000
      8 O2           3.1240    -0.3000    -0.0300 o          1 FYU      -0.534000
      9 CM5         -2.2330     0.9040     0.0170 c          1 FYU       0.599100
     10 O3          -3.1930     0.1690     0.0230 o          1 FYU      -0.483100
     11 H1           1.3210    -2.0050    -0.0220 hn         1 FYU       0.348500
     12 H3          -0.1540     2.5190     0.0070 h4         1 FYU       0.208000
     13 H4          -2.3610     2.0020     0.0220 h4         1 FYU      -0.024800
     14 H5           2.0870     1.9680    -0.0130 hn         1 FYU       0.466000
@<TRIPOS>BOND
     1     1     5 1   
     2     1     7 1   
     3     1    14 1   
     4     2     3 1   
     5     2     7 1   
     6     2    11 1   
     7     3     4 1   
     8     3     6 2   
     9     4     5 2   
    10     4     9 1   
    11     5    12 1   
    12     7     8 2   
    13     9    10 2   
    14     9    13 1   
@<TRIPOS>SUBSTRUCTURE
     1 FYU         1 TEMP              0 ****  ****    0 ROOT
