@<TRIPOS>MOLECULE
FYV
   23    25     1     0     0
SMALL
abcg2


@<TRIPOS>ATOM
      1 C14          3.7340    -0.5650    -0.2660 ca         1 FYV       0.332400
      2 C15          2.4390    -1.0460    -0.2440 ca         1 FYV      -0.151500
      3 N13          4.0540     0.7100    -0.0650 nb         1 FYV      -0.660000
      4 C12          3.0510     1.5460     0.1710 ca         1 FYV       0.332400
      5 C11          1.7170     1.1720     0.2180 ca         1 FYV      -0.151500
      6 C10          1.3800    -0.1670     0.0080 ca         1 FYV       0.030200
      7 C9           0.0280    -0.6940     0.0590 cc         1 FYV      -0.090300
      8 N5          -1.1420     0.0200    -0.0000 na         1 FYV       0.251900
      9 N4          -1.2700     1.3350    -0.1440 nc         1 FYV      -0.469800
     10 C3          -2.4880     1.7820    -0.1930 cd         1 FYV       0.311900
     11 C2          -3.6460     0.9710    -0.1100 cd         1 FYV      -0.170000
     12 C8          -0.3950    -2.0060     0.1880 cd         1 FYV      -0.025400
     13 N7          -1.7330    -2.1170     0.2060 nd         1 FYV      -0.263600
     14 C6          -2.1860    -0.8810     0.0870 cc         1 FYV      -0.124000
     15 C1          -3.4940    -0.3740     0.0320 cc         1 FYV      -0.014000
     16 H1           4.5530    -1.2470    -0.4640 h4         1 FYV       0.019100
     17 H2           2.2660    -2.0970    -0.4320 ha         1 FYV       0.131500
     18 H3           3.3150     2.5850     0.3360 h4         1 FYV       0.019100
     19 H4           0.9670     1.9220     0.4170 ha         1 FYV       0.131500
     20 H5          -2.5770     2.8540    -0.3070 h4         1 FYV       0.040100
     21 H6          -4.6220     1.4310    -0.1610 ha         1 FYV       0.138000
     22 H7           0.2400    -2.8750     0.2820 h4         1 FYV       0.232000
     23 H8          -4.3310    -1.0550     0.0990 ha         1 FYV       0.151000
@<TRIPOS>BOND
     1     1     2 ar  
     2     1     3 ar  
     3     1    16 1   
     4     2     6 ar  
     5     2    17 1   
     6     3     4 ar  
     7     4     5 ar  
     8     4    18 1   
     9     5     6 ar  
    10     5    19 1   
    11     6     7 1   
    12     7     8 1   
    13     7    12 2   
    14     8     9 1   
    15     8    14 1   
    16     9    10 2   
    17    10    11 1   
    18    10    20 1   
    19    11    15 2   
    20    11    21 1   
    21    12    13 1   
    22    12    22 1   
    23    13    14 2   
    24    14    15 1   
    25    15    23 1   
@<TRIPOS>SUBSTRUCTURE
     1 FYV         1 TEMP              0 ****  ****    0 ROOT
