@<TRIPOS>MOLECULE
FYV
   23    25     1     0     0
SMALL
No Charge or Current Charge


@<TRIPOS>ATOM
      1 C14          3.7630    -0.5720    -0.4490 ca         1 FYV       0.332400
      2 C15          2.4380    -1.0380    -0.4040 ca         1 FYV      -0.151500
      3 N13          4.1150     0.6840    -0.0900 nb         1 FYV      -0.660000
      4 C12          3.1320     1.5130     0.3290 ca         1 FYV       0.332400
      5 C11          1.7840     1.1280     0.4020 ca         1 FYV      -0.151500
      6 C10          1.4100    -0.1770     0.0250 ca         1 FYV       0.030200
      7 C9           0.0180    -0.6380     0.0860 cc         1 FYV      -0.090300
      8 N5          -1.1710     0.0370    -0.0050 na         1 FYV       0.251900
      9 N4          -1.2890     1.3790    -0.3170 nc         1 FYV      -0.469800
     10 C3          -2.5690     1.7780    -0.3850 cd         1 FYV       0.311900
     11 C2          -3.7330     0.9450    -0.1920 cd         1 FYV      -0.170000
     12 C8          -0.3490    -1.9440     0.3470 cd         1 FYV      -0.025400
     13 N7          -1.7370    -2.0620     0.3900 nd         1 FYV      -0.263600
     14 C6          -2.2060    -0.8460     0.1630 cc         1 FYV      -0.124000
     15 C1          -3.5460    -0.3880     0.0800 cc         1 FYV      -0.014000
     16 H1           4.5680    -1.2240    -0.7840 h4         1 FYV       0.019100
     17 H2           2.2260    -2.0550    -0.7170 ha         1 FYV       0.131500
     18 H3           3.4370     2.5180     0.6200 h4         1 FYV       0.019100
     19 H4           1.0520     1.8420     0.7640 ha         1 FYV       0.131500
     20 H5          -2.6740     2.8310    -0.6130 h4         1 FYV       0.040100
     21 H6          -4.7290     1.3660    -0.2710 ha         1 FYV       0.138000
     22 H7           0.2960    -2.8000     0.5180 h4         1 FYV       0.232000
     23 H8          -4.3760    -1.0740     0.2210 ha         1 FYV       0.151000
@<TRIPOS>BOND
     1     1     2 ar  
     2     1     3 ar  
     3     1    16 1   
     4     2     6 ar  
     5     2    17 1   
     6     3     4 ar  
     7     4     5 ar  
     8     4    18 1   
     9     5     6 ar  
    10     5    19 1   
    11     6     7 1   
    12     7     8 1   
    13     7    12 2   
    14     8     9 1   
    15     8    14 1   
    16     9    10 2   
    17    10    11 1   
    18    10    20 1   
    19    11    15 2   
    20    11    21 1   
    21    12    13 1   
    22    12    22 1   
    23    13    14 2   
    24    14    15 1   
    25    15    23 1   
@<TRIPOS>SUBSTRUCTURE
     1 FYV         1 TEMP              0 ****  ****    0 ROOT
