@<TRIPOS>MOLECULE
FYW
   50    53     1     0     0
SMALL
abcg2


@<TRIPOS>ATOM
      1 C2           7.9290     0.2810     0.7620 c3         1 FYW       0.512000
      2 C41         -6.4210     2.7130    -0.3510 c5         1 FYW       0.151300
      3 C43         -6.6190     1.5940    -1.3650 c5         1 FYW      -0.139400
      4 C46         -5.7450     0.4750    -0.8110 c5         1 FYW       0.229800
      5 C11          3.0450     0.5880    -0.0600 ca         1 FYW       0.000000
      6 C12          3.7700    -0.4700    -0.6110 ca         1 FYW      -0.147500
      7 C14          5.1560    -0.4110    -0.6550 ca         1 FYW      -0.069500
      8 C18          0.7380    -0.3100    -0.3110 c          1 FYW       0.642700
      9 C20         -0.6840     0.0840    -0.1760 ca         1 FYW      -0.286600
     10 C21         -1.1540     1.3820    -0.0160 ca         1 FYW       0.434900
     11 C24         -3.3680     0.7550    -0.0970 ca         1 FYW       0.669900
     12 C25         -3.0020    -0.6220    -0.1220 cp         1 FYW      -0.170000
     13 C26         -1.6580    -0.9160    -0.2080 ca         1 FYW       0.031000
     14 C28         -3.9490    -1.7380     0.0330 cp         1 FYW      -0.128000
     15 C29         -4.8330    -1.8270     1.1050 ca         1 FYW       0.109400
     16 F1           9.2080     0.4680     0.4750 f          1 FYW      -0.110667
     17 F3           7.7320    -1.0240     0.9600 f          1 FYW      -0.110667
     18 F4           7.6650     0.8900     1.9200 f          1 FYW      -0.110667
     19 O5           7.2080     0.7660    -0.2550 os         1 FYW      -0.397100
     20 C6           5.8220     0.6920    -0.1550 ca         1 FYW       0.056100
     21 C7           5.1190     1.7540     0.3870 ca         1 FYW      -0.069500
     22 C9           3.7400     1.6980     0.4300 ca         1 FYW      -0.147500
     23 O19          1.0450    -1.4250    -0.7000 o          1 FYW      -0.583100
     24 N23         -2.4300     1.7040     0.0180 nb         1 FYW      -0.769000
     25 N31         -5.6340    -2.8670     1.2840 nb         1 FYW      -0.170000
     26 C32         -5.5560    -3.8410     0.3890 ca         1 FYW       0.112900
     27 N34         -4.7520    -3.8720    -0.6630 nb         1 FYW      -0.170000
     28 C35         -3.9570    -2.8260    -0.8330 ca         1 FYW       0.109400
     29 N37         -4.6380     1.1970    -0.1880 nh         1 FYW      -0.770300
     30 C38         -4.9310     2.6250    -0.0770 c5         1 FYW       0.225800
     31 O49         -7.1070     2.4610     0.8560 oh         1 FYW      -0.649000
     32 H1          -6.6830     3.6940    -0.7610 h1         1 FYW       0.053700
     33 H3          -6.2490     1.9150    -2.3410 hc         1 FYW       0.062700
     34 H4          -6.3020    -0.1210    -0.0850 h1         1 FYW       0.059700
     35 H5          -5.3910    -0.1960    -1.5930 h1         1 FYW       0.059700
     36 H6           3.2760    -1.3390    -1.0080 ha         1 FYW       0.136500
     37 H7           5.7050    -1.2310    -1.0990 ha         1 FYW       0.135000
     38 H8          -0.4780     2.2280     0.0660 h4         1 FYW       0.011100
     39 H9          -1.3510    -1.9540    -0.2500 ha         1 FYW       0.143000
     40 H10         -4.8850    -1.0350     1.8450 h4         1 FYW       0.033100
     41 H11          5.6350     2.6290     0.7610 ha         1 FYW       0.135000
     42 H12          3.1940     2.5330     0.8530 ha         1 FYW       0.136500
     43 H14         -6.2100    -4.6930     0.5330 h5         1 FYW       0.052100
     44 H15         -3.3010    -2.8420    -1.6980 h4         1 FYW       0.033100
     45 H16         -4.3790     3.2010    -0.8240 h1         1 FYW       0.071700
     46 H17         -4.6610     3.0150     0.9050 h1         1 FYW       0.071700
     47 H18         -8.0490     2.4100     0.6610 ho         1 FYW       0.446000
     48 N16          1.6530     0.6400     0.0240 ns         1 FYW      -0.144000
     49 H2          -7.6600     1.2930    -1.4840 hc         1 FYW       0.062700
     50 H13          1.3010     1.4920     0.4320 hn         1 FYW       0.152000
@<TRIPOS>BOND
     1     1    16 1   
     2     1    17 1   
     3     1    18 1   
     4     1    19 1   
     5     2     3 1   
     6     2    30 1   
     7     2    31 1   
     8     2    32 1   
     9     3     4 1   
    10     3    33 1   
    11     3    49 1   
    12     4    29 1   
    13     4    34 1   
    14     4    35 1   
    15     5     6 ar  
    16     5    22 ar  
    17     5    48 1   
    18     6     7 ar  
    19     6    36 1   
    20     7    20 ar  
    21     7    37 1   
    22     8     9 1   
    23     8    23 2   
    24     8    48 1   
    25     9    10 ar  
    26     9    13 ar  
    27    10    24 ar  
    28    10    38 1   
    29    11    12 ar  
    30    11    24 ar  
    31    11    29 1   
    32    12    13 ar  
    33    12    14 1   
    34    13    39 1   
    35    14    15 ar  
    36    14    28 ar  
    37    15    25 ar  
    38    15    40 1   
    39    19    20 1   
    40    20    21 ar  
    41    21    22 ar  
    42    21    41 1   
    43    22    42 1   
    44    25    26 ar  
    45    26    27 ar  
    46    26    43 1   
    47    27    28 ar  
    48    28    44 1   
    49    29    30 1   
    50    30    45 1   
    51    30    46 1   
    52    31    47 1   
    53    48    50 1   
@<TRIPOS>SUBSTRUCTURE
     1 FYW         1 TEMP              0 ****  ****    0 ROOT
