@<TRIPOS>MOLECULE
FYW
   50    53     1     0     0
SMALL
No Charge or Current Charge


@<TRIPOS>ATOM
      1 C2           8.2700     0.1340     0.2980 c3         1 FYW       0.512000
      2 C41         -6.5130     2.6970    -0.2330 c5         1 FYW       0.151300
      3 C43         -6.5090     1.7950    -1.4930 c5         1 FYW      -0.139400
      4 C46         -5.7150     0.5560    -1.0070 c5         1 FYW       0.229800
      5 C11          3.0960     0.6840     0.0520 ca         1 FYW       0.000000
      6 C12          3.9270    -0.4470     0.2190 ca         1 FYW      -0.147500
      7 C14          5.3270    -0.3090     0.2510 ca         1 FYW      -0.069500
      8 C18          0.7790    -0.4400     0.0160 c          1 FYW       0.642700
      9 C20         -0.6820    -0.0810    -0.0140 ca         1 FYW      -0.286600
     10 C21         -1.1100     1.2530    -0.0310 ca         1 FYW       0.434900
     11 C24         -3.3460     0.6550    -0.0760 ca         1 FYW       0.669900
     12 C25         -3.0300    -0.7350    -0.0330 cp         1 FYW      -0.170000
     13 C26         -1.6640    -1.0880    -0.0130 ca         1 FYW       0.031000
     14 C28         -4.0530    -1.8230     0.0460 cp         1 FYW      -0.128000
     15 C29         -5.0520    -1.8440     1.0510 ca         1 FYW       0.109400
     16 F1           9.5200     0.6470     0.2790 f          1 FYW      -0.110667
     17 F3           8.2050    -0.7800    -0.6980 f          1 FYW      -0.110667
     18 F4           8.1320    -0.5210     1.4750 f          1 FYW      -0.110667
     19 O5           7.2890     1.1800     0.1400 os         1 FYW      -0.397100
     20 C6           5.9210     0.9660     0.1180 ca         1 FYW       0.056100
     21 C7           5.0950     2.0890    -0.0430 ca         1 FYW      -0.069500
     22 C9           3.6960     1.9500    -0.0750 ca         1 FYW      -0.147500
     23 O19          1.1270    -1.6140     0.0350 o          1 FYW      -0.583100
     24 N23         -2.4050     1.6150    -0.0650 nb         1 FYW      -0.769000
     25 N31         -5.9660    -2.8320     1.1360 nb         1 FYW      -0.170000
     26 C32         -5.8770    -3.8140     0.2140 ca         1 FYW       0.112900
     27 N34         -4.9650    -3.9090    -0.7770 nb         1 FYW      -0.170000
     28 C35         -4.0550    -2.9170    -0.8540 ca         1 FYW       0.109400
     29 N37         -4.6460     1.1860    -0.1940 nh         1 FYW      -0.770300
     30 C38         -5.0150     2.5800     0.2070 c5         1 FYW       0.225800
     31 O49         -7.4390     2.2230     0.7570 oh         1 FYW      -0.649000
     32 H1          -6.7550     3.7380    -0.4920 h1         1 FYW       0.053700
     33 H3          -5.9930     2.2870    -2.3260 hc         1 FYW       0.062700
     34 H4          -6.3510    -0.1010    -0.3990 h1         1 FYW       0.059700
     35 H5          -5.3190    -0.0260    -1.8510 h1         1 FYW       0.059700
     36 H6           3.5110    -1.4420     0.3310 ha         1 FYW       0.136500
     37 H7           5.9270    -1.2050     0.3810 ha         1 FYW       0.135000
     38 H8          -0.4030     2.0810    -0.0250 h4         1 FYW       0.011100
     39 H9          -1.3810    -2.1390     0.0240 ha         1 FYW       0.143000
     40 H10         -5.1170    -1.0530     1.7960 h4         1 FYW       0.033100
     41 H11          5.5420     3.0750    -0.1440 ha         1 FYW       0.135000
     42 H12          3.0780     2.8370    -0.2010 ha         1 FYW       0.136500
     43 H14         -6.6130    -4.6140     0.2790 h5         1 FYW       0.052100
     44 H15         -3.3170    -2.9920    -1.6510 h4         1 FYW       0.033100
     45 H16         -4.4080     3.3250    -0.3270 h1         1 FYW       0.071700
     46 H17         -4.8960     2.7510     1.2850 h1         1 FYW       0.071700
     47 H18         -8.3410     2.3430     0.3850 ho         1 FYW       0.446000
     48 N16          1.6750     0.6240     0.0130 ns         1 FYW      -0.144000
     49 H2          -7.5150     1.5370    -1.8430 hc         1 FYW       0.062700
     50 H13          1.2380     1.5350    -0.0220 hn         1 FYW       0.152000
@<TRIPOS>BOND
     1     1    16 1   
     2     1    17 1   
     3     1    18 1   
     4     1    19 1   
     5     2     3 1   
     6     2    30 1   
     7     2    31 1   
     8     2    32 1   
     9     3     4 1   
    10     3    33 1   
    11     3    49 1   
    12     4    29 1   
    13     4    34 1   
    14     4    35 1   
    15     5     6 ar  
    16     5    22 ar  
    17     5    48 1   
    18     6     7 ar  
    19     6    36 1   
    20     7    20 ar  
    21     7    37 1   
    22     8     9 1   
    23     8    23 2   
    24     8    48 1   
    25     9    10 ar  
    26     9    13 ar  
    27    10    24 ar  
    28    10    38 1   
    29    11    12 ar  
    30    11    24 ar  
    31    11    29 1   
    32    12    13 ar  
    33    12    14 1   
    34    13    39 1   
    35    14    15 ar  
    36    14    28 ar  
    37    15    25 ar  
    38    15    40 1   
    39    19    20 1   
    40    20    21 ar  
    41    21    22 ar  
    42    21    41 1   
    43    22    42 1   
    44    25    26 ar  
    45    26    27 ar  
    46    26    43 1   
    47    27    28 ar  
    48    28    44 1   
    49    29    30 1   
    50    30    45 1   
    51    30    46 1   
    52    31    47 1   
    53    48    50 1   
@<TRIPOS>SUBSTRUCTURE
     1 FYW         1 TEMP              0 ****  ****    0 ROOT
