@<TRIPOS>MOLECULE
FYX
   27    29     1     0     0
SMALL
abcg2


@<TRIPOS>ATOM
      1 CPO         -1.1580     0.1480     3.5210 ca         1 FYX      -0.137500
      2 CPR         -1.4160     0.1730     4.8810 ca         1 FYX       0.337900
      3 NPS         -0.4770     0.0340     5.8100 nb         1 FYX      -0.649000
      4 CPT          0.7730    -0.1360     5.3980 ca         1 FYX       0.337900
      5 CPQ          1.1430    -0.1760     4.0620 ca         1 FYX      -0.137500
      6 CPP          0.1540    -0.0310     3.0950 ca         1 FYX      -0.097500
      7 CPM          0.4480    -0.0620     1.6660 cc         1 FYX       0.480000
      8 NPJ         -0.4380     0.0240     0.6970 nd         1 FYX      -0.684000
      9 NPN          1.6690    -0.1810     1.1240 na         1 FYX      -0.171700
     10 NPL          1.5990    -0.1750    -0.1970 nc         1 FYX      -0.511800
     11 CPK          0.3080    -0.0490    -0.4220 cd         1 FYX       0.577500
     12 CPH         -0.2550     0.0050    -1.7670 ca         1 FYX      -0.080500
     13 CPG          0.5660    -0.0400    -2.8920 ca         1 FYX      -0.098000
     14 CPI         -1.6260     0.1030    -1.9660 ca         1 FYX      -0.114000
     15 CPF         -2.1200     0.1500    -3.2630 ca         1 FYX       0.330900
     16 NPE         -1.3510     0.1080    -4.3390 nb         1 FYX      -0.627000
     17 CPD         -0.0400     0.0150    -4.1360 ca         1 FYX       0.422000
     18 CPB          0.7750    -0.0290    -5.3200 cg         1 FYX       0.221000
     19 NPC          1.4300    -0.0680    -6.2650 n1         1 FYX      -0.433000
     20 HPO         -1.9640     0.2650     2.8100 ha         1 FYX       0.133500
     21 HPR         -2.4320     0.3120     5.2330 h4         1 FYX       0.026600
     22 HPT          1.5290    -0.2500     6.1660 h4         1 FYX       0.026600
     23 HPQ          2.1850    -0.3220     3.8130 ha         1 FYX       0.133500
     24 HPN          2.5670    -0.2670     1.5790 hn         1 FYX       0.387000
     25 HPG          1.6410    -0.1140    -2.8070 ha         1 FYX       0.150000
     26 HPI         -2.3080     0.1410    -1.1290 ha         1 FYX       0.147000
     27 HPF         -3.1870     0.2250    -3.4330 h4         1 FYX       0.030100
@<TRIPOS>BOND
     1     1     2 ar  
     2     1     6 ar  
     3     1    20 1   
     4     2     3 ar  
     5     2    21 1   
     6     3     4 ar  
     7     4     5 ar  
     8     4    22 1   
     9     5     6 ar  
    10     5    23 1   
    11     6     7 1   
    12     7     8 2   
    13     7     9 1   
    14     8    11 1   
    15     9    10 1   
    16     9    24 1   
    17    10    11 2   
    18    11    12 1   
    19    12    13 ar  
    20    12    14 ar  
    21    13    17 ar  
    22    13    25 1   
    23    14    15 ar  
    24    14    26 1   
    25    15    16 ar  
    26    15    27 1   
    27    16    17 ar  
    28    17    18 1   
    29    18    19 3   
@<TRIPOS>SUBSTRUCTURE
     1 FYX         1 TEMP              0 ****  ****    0 ROOT
