@<TRIPOS>MOLECULE
FYX
   27    29     1     0     0
SMALL
No Charge or Current Charge


@<TRIPOS>ATOM
      1 CPO         -1.1840     0.0960     3.5820 ca         1 FYX      -0.137500
      2 CPR         -1.4500     0.1190     4.9620 ca         1 FYX       0.337900
      3 NPS         -0.4810     0.0210     5.9010 nb         1 FYX      -0.649000
      4 CPT          0.7960    -0.1050     5.4720 ca         1 FYX       0.337900
      5 CPQ          1.1510    -0.1370     4.1120 ca         1 FYX      -0.137500
      6 CPP          0.1450    -0.0350     3.1230 ca         1 FYX      -0.097500
      7 CPM          0.4530    -0.0620     1.6850 cc         1 FYX       0.480000
      8 NPJ         -0.4230     0.0270     0.7030 nd         1 FYX      -0.684000
      9 NPN          1.7030    -0.1850     1.1360 na         1 FYX      -0.171700
     10 NPL          1.6460    -0.1760    -0.2290 nc         1 FYX      -0.511800
     11 CPK          0.3430    -0.0470    -0.4450 cd         1 FYX       0.577500
     12 CPH         -0.2420     0.0140    -1.8030 ca         1 FYX      -0.080500
     13 CPG          0.5630    -0.0630    -2.9620 ca         1 FYX      -0.098000
     14 CPI         -1.6340     0.1530    -2.0000 ca         1 FYX      -0.114000
     15 CPF         -2.1510     0.2070    -3.3050 ca         1 FYX       0.330900
     16 NPE         -1.3760     0.1330    -4.4100 nb         1 FYX      -0.627000
     17 CPD         -0.0340    -0.0010    -4.2360 ca         1 FYX       0.422000
     18 CPB          0.7840    -0.0790    -5.4250 cg         1 FYX       0.221000
     19 NPC          1.4560    -0.1430    -6.3810 n1         1 FYX      -0.433000
     20 HPO         -2.0120     0.1800     2.8830 ha         1 FYX       0.133500
     21 HPR         -2.4710     0.2200     5.3270 h4         1 FYX       0.026600
     22 HPT          1.5600    -0.1830     6.2450 h4         1 FYX       0.026600
     23 HPQ          2.1990    -0.2410     3.8490 ha         1 FYX       0.133500
     24 HPN          2.5740    -0.2730     1.6490 hn         1 FYX       0.387000
     25 HPG          1.6420    -0.1700    -2.8840 ha         1 FYX       0.150000
     26 HPI         -2.3180     0.2190    -1.1580 ha         1 FYX       0.147000
     27 HPF         -3.2220     0.3140    -3.4710 h4         1 FYX       0.030100
@<TRIPOS>BOND
     1     1     2 ar  
     2     1     6 ar  
     3     1    20 1   
     4     2     3 ar  
     5     2    21 1   
     6     3     4 ar  
     7     4     5 ar  
     8     4    22 1   
     9     5     6 ar  
    10     5    23 1   
    11     6     7 1   
    12     7     8 2   
    13     7     9 1   
    14     8    11 1   
    15     9    10 1   
    16     9    24 1   
    17    10    11 2   
    18    11    12 1   
    19    12    13 ar  
    20    12    14 ar  
    21    13    17 ar  
    22    13    25 1   
    23    14    15 ar  
    24    14    26 1   
    25    15    16 ar  
    26    15    27 1   
    27    16    17 ar  
    28    17    18 1   
    29    18    19 3   
@<TRIPOS>SUBSTRUCTURE
     1 FYX         1 TEMP              0 ****  ****    0 ROOT
