@<TRIPOS>MOLECULE
FYZ
   49    51     1     0     0
SMALL
No Charge or Current Charge


@<TRIPOS>ATOM
      1 O2           6.1240     1.5670     1.2610 oh         1 FYZ      -0.690000
      2 C2           4.7040     1.5090     0.9580 c6         1 FYZ       0.131300
      3 C3           4.5040     1.7370    -0.5700 c6         1 FYZ       0.140300
      4 O3           5.1650     2.9500    -0.9750 oh         1 FYZ      -0.652000
      5 C4           5.0580     0.5260    -1.3840 c6         1 FYZ       0.141300
      6 O4           4.8260     0.7390    -2.7920 oh         1 FYZ      -0.723000
      7 C5           4.4050    -0.7960    -0.8740 c6         1 FYZ       0.173300
      8 O5           4.6080    -0.9370     0.5620 os         1 FYZ      -0.456000
      9 C6           4.9920    -2.0630    -1.5800 c3         1 FYZ       0.167600
     10 O6           4.4340    -3.3030    -1.0950 oh         1 FYZ      -0.714000
     11 C1           4.0530     0.1350     1.3580 c6         1 FYZ       0.355300
     12 O1           2.6250     0.1670     1.1790 os         1 FYZ      -0.485000
     13 C7           1.9010    -0.9790     1.6590 c3         1 FYZ       0.256700
     14 C8           0.4740    -0.7690     1.3900 c1         1 FYZ      -0.130100
     15 C9          -0.7040    -0.6170     1.1350 cg         1 FYZ      -0.099000
     16 C10         -2.0920    -0.4300     0.8260 ca         1 FYZ       0.027000
     17 C11         -2.6790    -1.1290    -0.2420 ca         1 FYZ      -0.087000
     18 C12         -4.0400    -0.9450    -0.5430 ca         1 FYZ      -0.104000
     19 C13         -4.8460    -0.0580     0.2140 cp         1 FYZ      -0.024000
     20 C14         -4.2330     0.6380     1.2860 ca         1 FYZ      -0.104000
     21 C15         -2.8730     0.4550     1.5900 ca         1 FYZ      -0.087000
     22 C16         -6.2960     0.1380    -0.1090 cp         1 FYZ      -0.039000
     23 C21         -6.9200     1.4020     0.0540 ca         1 FYZ      -0.098000
     24 C20         -8.2800     1.5860    -0.2490 ca         1 FYZ      -0.111000
     25 C19         -9.0480     0.5090    -0.7210 ca         1 FYZ      -0.105000
     26 C18         -8.4530    -0.7520    -0.8900 ca         1 FYZ      -0.111000
     27 C17         -7.0920    -0.9350    -0.5880 ca         1 FYZ      -0.098000
     28 H2           6.2250     1.4530     2.2350 ho         1 FYZ       0.503000
     29 HA           4.1740     2.3060     1.5010 h1         1 FYZ       0.052700
     30 H3           3.4240     1.8190    -0.7670 h1         1 FYZ       0.062700
     31 H1           4.2710    -0.0570     2.4190 h2         1 FYZ       0.068700
     32 HB           5.9450     3.0130    -0.3760 ho         1 FYZ       0.447000
     33 H4           6.1410     0.4550    -1.1970 h1         1 FYZ       0.069700
     34 HC           4.9830     1.7050    -2.9350 ho         1 FYZ       0.521000
     35 H5           3.3260    -0.7680    -1.0820 h1         1 FYZ       0.066700
     36 H61C         4.8090    -1.9700    -2.6590 h1         1 FYZ       0.037200
     37 H62C         6.0820    -2.0580    -1.4350 h1         1 FYZ       0.037200
     38 H6           4.9150    -4.0330    -1.5500 ho         1 FYZ       0.502000
     39 H71C         2.2270    -1.8960     1.1500 h1         1 FYZ       0.056700
     40 H72C         2.0470    -1.1120     2.7390 h1         1 FYZ       0.056700
     41 H11         -2.0820    -1.8130    -0.8410 ha         1 FYZ       0.120000
     42 H15         -2.4280     0.9990     2.4210 ha         1 FYZ       0.120000
     43 H12         -4.4680    -1.4870    -1.3830 ha         1 FYZ       0.118000
     44 H14         -4.8200     1.3170     1.9000 ha         1 FYZ       0.118000
     45 H21         -6.3410     2.2520     0.4050 ha         1 FYZ       0.114500
     46 H17         -6.6560    -1.9220    -0.7130 ha         1 FYZ       0.114500
     47 H20         -8.7380     2.5640    -0.1200 ha         1 FYZ       0.113000
     48 H19        -10.1010     0.6510    -0.9550 ha         1 FYZ       0.113000
     49 H18         -9.0470    -1.5880    -1.2520 ha         1 FYZ       0.113000
@<TRIPOS>BOND
     1     1     2 1   
     2     1    28 1   
     3     2     3 1   
     4     2    11 1   
     5     2    29 1   
     6     3     4 1   
     7     3     5 1   
     8     3    30 1   
     9     4    32 1   
    10     5     6 1   
    11     5     7 1   
    12     5    33 1   
    13     6    34 1   
    14     7     8 1   
    15     7     9 1   
    16     7    35 1   
    17     8    11 1   
    18     9    10 1   
    19     9    36 1   
    20     9    37 1   
    21    10    38 1   
    22    11    12 1   
    23    11    31 1   
    24    12    13 1   
    25    13    14 1   
    26    13    39 1   
    27    13    40 1   
    28    14    15 3   
    29    15    16 1   
    30    16    17 ar  
    31    16    21 ar  
    32    17    18 ar  
    33    17    41 1   
    34    18    19 ar  
    35    18    43 1   
    36    19    20 ar  
    37    19    22 1   
    38    20    21 ar  
    39    20    44 1   
    40    21    42 1   
    41    22    23 ar  
    42    22    27 ar  
    43    23    24 ar  
    44    23    45 1   
    45    24    25 ar  
    46    24    47 1   
    47    25    26 ar  
    48    25    48 1   
    49    26    27 ar  
    50    26    49 1   
    51    27    46 1   
@<TRIPOS>SUBSTRUCTURE
     1 FYZ         1 TEMP              0 ****  ****    0 ROOT
