@<TRIPOS>MOLECULE
FYZ
   49    51     1     0     0
SMALL
bcc


@<TRIPOS>ATOM
      1 O2           5.3640     1.6490     1.5960 oh         1 FYZ      -0.567800
      2 C2           4.2140     1.4230     0.8250 c6         1 FYZ       0.108100
      3 C3           4.5810     1.5780    -0.6480 c6         1 FYZ       0.117100
      4 O3           5.1670     2.8300    -0.9270 oh         1 FYZ      -0.589800
      5 C4           5.5680     0.4960    -1.0710 c6         1 FYZ       0.118100
      6 O4           5.8060     0.5460    -2.4560 oh         1 FYZ      -0.600800
      7 C5           4.9960    -0.8840    -0.7430 c6         1 FYZ       0.150100
      8 O5           4.6060    -0.9570     0.6180 os         1 FYZ      -0.409600
      9 C6           6.0220    -1.9730    -0.9710 c3         1 FYZ       0.144400
     10 O6           5.4150    -3.2270    -0.7670 oh         1 FYZ      -0.591800
     11 C1           3.6930     0.0000     1.0560 c6         1 FYZ       0.308900
     12 O1           2.4570    -0.0900     0.4180 os         1 FYZ      -0.438600
     13 C7           1.7350    -1.2800     0.6590 c3         1 FYZ       0.233500
     14 C8           0.3190    -1.0020     0.4750 c1         1 FYZ      -0.130100
     15 C9          -0.8660    -0.7960     0.4110 cg         1 FYZ      -0.099000
     16 C10         -2.2610    -0.5250     0.3230 ca         1 FYZ       0.027000
     17 C11         -3.0370    -1.0890    -0.6930 ca         1 FYZ      -0.105000
     18 C12         -4.3930    -0.8320    -0.7630 ca         1 FYZ      -0.122000
     19 C13         -5.0190    -0.0050     0.1710 cp         1 FYZ      -0.024000
     20 C14         -4.2380     0.5580     1.1820 ca         1 FYZ      -0.122000
     21 C15         -2.8820     0.3020     1.2610 ca         1 FYZ      -0.105000
     22 C16         -6.4670     0.2650     0.0980 cp         1 FYZ      -0.039000
     23 C21         -6.9670     1.5410     0.3590 ca         1 FYZ      -0.116000
     24 C20         -8.3280     1.7960     0.2960 ca         1 FYZ      -0.129000
     25 C19         -9.2150     0.7770    -0.0260 ca         1 FYZ      -0.123000
     26 C18         -8.7290    -0.4960    -0.2870 ca         1 FYZ      -0.129000
     27 C17         -7.3670    -0.7490    -0.2270 ca         1 FYZ      -0.116000
     28 H2           5.0990     1.7960     2.5070 ho         1 FYZ       0.404000
     29 HA           3.4160     2.1340     1.0770 h1         1 FYZ       0.052700
     30 H3           3.6670     1.4470    -1.2400 h1         1 FYZ       0.062700
     31 H1           3.5830    -0.1980     2.1320 h2         1 FYZ       0.068700
     32 HB           4.4760     3.4380    -1.1960 ho         1 FYZ       0.408000
     33 H4           6.5060     0.6320    -0.5110 h1         1 FYZ       0.069700
     34 HC           6.0560     1.4500    -2.6720 ho         1 FYZ       0.422000
     35 H5           4.1360    -1.0700    -1.4040 h1         1 FYZ       0.066700
     36 H61C         6.4110    -1.8730    -1.9900 h1         1 FYZ       0.037200
     37 H62C         6.8650    -1.8120    -0.2860 h1         1 FYZ       0.037200
     38 H6           6.0740    -3.9000    -0.9520 ho         1 FYZ       0.403000
     39 H71C         2.0530    -2.0850    -0.0130 h1         1 FYZ       0.056700
     40 H72C         1.8980    -1.6390     1.6830 h1         1 FYZ       0.056700
     41 H11         -2.5670    -1.7250    -1.4310 ha         1 FYZ       0.138000
     42 H15         -2.2960     0.7370     2.0590 ha         1 FYZ       0.138000
     43 H12         -4.9710    -1.2610    -1.5720 ha         1 FYZ       0.136000
     44 H14         -4.7030     1.1820     1.9350 ha         1 FYZ       0.136000
     45 H21         -6.2830     2.3490     0.5870 ha         1 FYZ       0.132500
     46 H17         -7.0030    -1.7530    -0.4100 ha         1 FYZ       0.132500
     47 H20         -8.6960     2.7940     0.4940 ha         1 FYZ       0.131000
     48 H19        -10.2770     0.9740    -0.0720 ha         1 FYZ       0.131000
     49 H18         -9.4130    -1.2990    -0.5300 ha         1 FYZ       0.131000
@<TRIPOS>BOND
     1     1     2 1   
     2     1    28 1   
     3     2     3 1   
     4     2    11 1   
     5     2    29 1   
     6     3     4 1   
     7     3     5 1   
     8     3    30 1   
     9     4    32 1   
    10     5     6 1   
    11     5     7 1   
    12     5    33 1   
    13     6    34 1   
    14     7     8 1   
    15     7     9 1   
    16     7    35 1   
    17     8    11 1   
    18     9    10 1   
    19     9    36 1   
    20     9    37 1   
    21    10    38 1   
    22    11    12 1   
    23    11    31 1   
    24    12    13 1   
    25    13    14 1   
    26    13    39 1   
    27    13    40 1   
    28    14    15 3   
    29    15    16 1   
    30    16    17 ar  
    31    16    21 ar  
    32    17    18 ar  
    33    17    41 1   
    34    18    19 ar  
    35    18    43 1   
    36    19    20 ar  
    37    19    22 1   
    38    20    21 ar  
    39    20    44 1   
    40    21    42 1   
    41    22    23 ar  
    42    22    27 ar  
    43    23    24 ar  
    44    23    45 1   
    45    24    25 ar  
    46    24    47 1   
    47    25    26 ar  
    48    25    48 1   
    49    26    27 ar  
    50    26    49 1   
    51    27    46 1   
@<TRIPOS>SUBSTRUCTURE
     1 FYZ         1 TEMP              0 ****  ****    0 ROOT
