@<TRIPOS>MOLECULE
FZ0
   25    25     1     0     0
SMALL
abcg2


@<TRIPOS>ATOM
      1 C1          -1.4010   -34.5880   -62.8160 ca         1 FZ0      -0.125000
      2 C2          -1.5230   -35.7280   -62.0180 ca         1 FZ0      -0.002000
      3 C3          -1.5860   -36.9820   -62.6310 ca         1 FZ0      -0.169000
      4 C4          -1.5260   -37.0750   -64.0060 ca         1 FZ0       0.120100
      5 C5          -1.4110   -35.9590   -64.8150 ca         1 FZ0      -0.128000
      6 C6          -1.3510   -34.7200   -64.1960 ca         1 FZ0      -0.075000
      7 N7          -1.5810   -35.7150   -60.6250 ns         1 FZ0      -0.155000
      8 C8          -1.6400   -34.6550   -59.7720 c          1 FZ0       0.607100
      9 C9          -1.6330   -35.0720   -58.3120 c3         1 FZ0       0.070800
     10 N10         -1.9200   -33.9500   -57.4490 n8         1 FZ0      -0.973200
     11 O11         -1.6650   -33.4930   -60.1240 o          1 FZ0      -0.553100
     12 O12         -1.6520   -38.3310   -64.5910 os         1 FZ0      -0.404100
     13 C13         -0.5330   -39.0260   -64.8260 c3         1 FZ0       0.515000
     14 F14         -0.8820   -40.1710   -65.3910 f          1 FZ0      -0.109667
     15 F15          0.1500   -39.2990   -63.7130 f          1 FZ0      -0.109667
     16 F16          0.3070   -38.3920   -65.6470 f          1 FZ0      -0.109667
     17 H1          -1.3490   -33.6060   -62.3770 ha         1 FZ0       0.154000
     18 H2          -1.7010   -37.8770   -62.0310 ha         1 FZ0       0.129000
     19 H3          -1.3860   -36.0480   -65.8930 ha         1 FZ0       0.137000
     20 H4          -1.2600   -33.8300   -64.8030 ha         1 FZ0       0.124000
     21 H5          -1.5940   -36.6280   -60.1940 hn         1 FZ0       0.151000
     22 H6          -2.3930   -35.8430   -58.1610 h1         1 FZ0       0.046200
     23 H7          -0.6650   -35.5610   -58.1250 h1         1 FZ0       0.046200
     24 H8          -1.9510   -34.2790   -56.4930 hn         1 FZ0       0.406000
     25 H9          -1.1590   -33.2850   -57.4880 hn         1 FZ0       0.406000
@<TRIPOS>BOND
     1     1     2 ar  
     2     1     6 ar  
     3     1    17 1   
     4     2     3 ar  
     5     2     7 1   
     6     3     4 ar  
     7     3    18 1   
     8     4     5 ar  
     9     4    12 1   
    10     5     6 ar  
    11     5    19 1   
    12     6    20 1   
    13     7     8 1   
    14     7    21 1   
    15     8     9 1   
    16     8    11 2   
    17     9    10 1   
    18     9    22 1   
    19     9    23 1   
    20    10    24 1   
    21    10    25 1   
    22    12    13 1   
    23    13    14 1   
    24    13    15 1   
    25    13    16 1   
@<TRIPOS>SUBSTRUCTURE
     1 FZ0         1 TEMP              0 ****  ****    0 ROOT
