@<TRIPOS>MOLECULE
FZ0
   25    25     1     0     0
SMALL
No Charge or Current Charge


@<TRIPOS>ATOM
      1 C1          -1.7660   -34.4480   -62.9690 ca         1 FZ0      -0.125000
      2 C2          -1.4530   -35.5980   -62.2110 ca         1 FZ0      -0.002000
      3 C3          -1.1910   -36.8090   -62.8820 ca         1 FZ0      -0.169000
      4 C4          -1.2370   -36.8790   -64.2930 ca         1 FZ0       0.120100
      5 C5          -1.5480   -35.7250   -65.0280 ca         1 FZ0      -0.128000
      6 C6          -1.8120   -34.5140   -64.3710 ca         1 FZ0      -0.075000
      7 N7          -1.3880   -35.6110   -60.7900 ns         1 FZ0      -0.155000
      8 C8          -1.5410   -34.6140   -59.8330 c          1 FZ0       0.607100
      9 C9          -1.3820   -35.1290   -58.3610 c3         1 FZ0       0.070800
     10 N10         -1.9150   -34.2610   -57.2490 n8         1 FZ0      -0.973200
     11 O11         -1.7710   -33.4350   -60.0950 o          1 FZ0      -0.553100
     12 O12         -0.9900   -38.0360   -65.0100 os         1 FZ0      -0.404100
     13 C13         -0.6570   -39.3040   -64.4090 c3         1 FZ0       0.515000
     14 F14         -0.4720   -40.2460   -65.3600 f          1 FZ0      -0.109667
     15 F15         -1.6390   -39.7560   -63.5950 f          1 FZ0      -0.109667
     16 F16          0.4880   -39.2430   -63.6900 f          1 FZ0      -0.109667
     17 H1          -1.9790   -33.4950   -62.4950 ha         1 FZ0       0.154000
     18 H2          -0.9530   -37.6850   -62.2880 ha         1 FZ0       0.129000
     19 H3          -1.5850   -35.7720   -66.1140 ha         1 FZ0       0.137000
     20 H4          -2.0540   -33.6240   -64.9500 ha         1 FZ0       0.124000
     21 H5          -1.1930   -36.5250   -60.4010 hn         1 FZ0       0.151000
     22 H6          -1.8770   -36.1080   -58.2980 h1         1 FZ0       0.046200
     23 H7          -0.3080   -35.2950   -58.1940 h1         1 FZ0       0.046200
     24 H8          -1.6410   -34.6550   -56.3390 hn         1 FZ0       0.406000
     25 H9          -1.4410   -33.3470   -57.2710 hn         1 FZ0       0.406000
@<TRIPOS>BOND
     1     1     2 ar  
     2     1     6 ar  
     3     1    17 1   
     4     2     3 ar  
     5     2     7 1   
     6     3     4 ar  
     7     3    18 1   
     8     4     5 ar  
     9     4    12 1   
    10     5     6 ar  
    11     5    19 1   
    12     6    20 1   
    13     7     8 1   
    14     7    21 1   
    15     8     9 1   
    16     8    11 2   
    17     9    10 1   
    18     9    22 1   
    19     9    23 1   
    20    10    24 1   
    21    10    25 1   
    22    12    13 1   
    23    13    14 1   
    24    13    15 1   
    25    13    16 1   
@<TRIPOS>SUBSTRUCTURE
     1 FZ0         1 TEMP              0 ****  ****    0 ROOT
