@<TRIPOS>MOLECULE
FZ1
   53    57     1     0     0
SMALL
abcg2


@<TRIPOS>ATOM
      1 C52          8.8140     1.3190    -0.5180 c3         1 FZ1       0.149900
      2 O31          8.1230     0.0980    -0.3600 os         1 FZ1      -0.343100
      3 C50          6.7800     0.1390    -0.2060 ca         1 FZ1       0.113100
      4 C43          6.1280    -1.0810    -0.0520 ca         1 FZ1      -0.145000
      5 C4           4.7530    -1.1370     0.1040 ca         1 FZ1      -0.115000
      6 C5           3.9770     0.0260     0.1350 ca         1 FZ1       0.244000
      7 C1           4.6470     1.2420    -0.0100 ca         1 FZ1      -0.115000
      8 C42          6.0210     1.3060    -0.1890 ca         1 FZ1      -0.145000
      9 N6           2.5860     0.0110     0.3330 nh         1 FZ1      -0.781400
     10 C2           1.9830    -1.2470     0.7190 c6         1 FZ1       0.184300
     11 C7           0.5690    -1.0080     1.2090 c6         1 FZ1       0.206300
     12 N9          -0.2190    -0.3360     0.1830 nh         1 FZ1      -0.776300
     13 C8           0.3710     0.9430    -0.1690 c6         1 FZ1       0.206300
     14 C3           1.7870     0.7100    -0.6630 c6         1 FZ1       0.184300
     15 C22         -1.5690    -0.4930     0.1030 ca         1 FZ1       0.393900
     16 N23         -2.3120     0.5820    -0.0280 nb         1 FZ1      -0.233000
     17 C24         -3.6470     0.4450    -0.0190 cp         1 FZ1       0.127000
     18 C28         -4.4480     1.6890    -0.1830 cp         1 FZ1       0.291000
     19 C29         -5.8350     1.6570    -0.0430 ca         1 FZ1      -0.118000
     20 C30         -6.5480     2.8320    -0.2070 ca         1 FZ1      -0.088000
     21 C31         -5.8610     3.9970    -0.5080 ca         1 FZ1      -0.153000
     22 C32         -4.4800     3.9260    -0.6300 ca         1 FZ1       0.326900
     23 N33         -3.7890     2.8070    -0.4700 nb         1 FZ1      -0.631000
     24 N25         -4.3090    -0.6670     0.1480 nb         1 FZ1      -0.206000
     25 C26         -3.5830    -1.8100     0.1890 ca         1 FZ1       0.047000
     26 C27         -2.1740    -1.7980     0.1080 ca         1 FZ1      -0.158000
     27 C37         -4.2600    -3.0460     0.2540 ca         1 FZ1      -0.099000
     28 C36         -3.5600    -4.2200     0.1690 ca         1 FZ1      -0.083000
     29 C35         -2.1650    -4.2070    -0.0100 ca         1 FZ1      -0.128000
     30 C34         -1.4840    -3.0170    -0.0420 ca         1 FZ1      -0.067000
     31 H1           8.4990     1.8540    -1.4190 h1         1 FZ1       0.039033
     32 H2           8.6850     1.9800     0.3430 h1         1 FZ1       0.039033
     33 H3           9.8680     1.0700    -0.6120 h1         1 FZ1       0.039033
     34 H4           6.7030    -1.9990    -0.0680 ha         1 FZ1       0.120500
     35 H5           4.2960    -2.1130     0.2000 ha         1 FZ1       0.114000
     36 H6           4.0930     2.1720     0.0330 ha         1 FZ1       0.114000
     37 H7           6.4790     2.2800    -0.2990 ha         1 FZ1       0.120500
     38 H8           1.9660    -1.9760    -0.1070 h1         1 FZ1       0.044950
     39 H9           2.5540    -1.6880     1.5370 h1         1 FZ1       0.044950
     40 H10          0.1150    -1.9500     1.5020 h1         1 FZ1       0.062200
     41 H11          0.6000    -0.3750     2.1040 h1         1 FZ1       0.062200
     42 H12         -0.2120     1.4120    -0.9580 h1         1 FZ1       0.062200
     43 H13          0.3780     1.6220     0.6920 h1         1 FZ1       0.062200
     44 H14          2.2310     1.6780    -0.8870 h1         1 FZ1       0.044950
     45 H15          1.7480     0.1440    -1.6060 h1         1 FZ1       0.044950
     46 H16         -6.3350     0.7280     0.1880 ha         1 FZ1       0.146000
     47 H17         -7.6250     2.8360    -0.1020 ha         1 FZ1       0.120000
     48 H18         -6.3750     4.9380    -0.6470 ha         1 FZ1       0.123000
     49 H19         -3.9080     4.8160    -0.8690 h4         1 FZ1       0.019100
     50 H20         -5.3390    -3.0410     0.3440 ha         1 FZ1       0.133000
     51 H21         -4.0850    -5.1660     0.2080 ha         1 FZ1       0.117000
     52 H22         -1.6290    -5.1380    -0.1370 ha         1 FZ1       0.117000
     53 H23         -0.4170    -3.0240    -0.2200 ha         1 FZ1       0.120000
@<TRIPOS>BOND
     1     1     2 1   
     2     1    31 1   
     3     1    32 1   
     4     1    33 1   
     5     2     3 1   
     6     3     4 ar  
     7     3     8 ar  
     8     4     5 ar  
     9     4    34 1   
    10     5     6 ar  
    11     5    35 1   
    12     6     7 ar  
    13     6     9 1   
    14     7     8 ar  
    15     7    36 1   
    16     8    37 1   
    17     9    10 1   
    18     9    14 1   
    19    10    11 1   
    20    10    38 1   
    21    10    39 1   
    22    11    12 1   
    23    11    40 1   
    24    11    41 1   
    25    12    13 1   
    26    12    15 1   
    27    13    14 1   
    28    13    42 1   
    29    13    43 1   
    30    14    44 1   
    31    14    45 1   
    32    15    16 ar  
    33    15    26 ar  
    34    16    17 ar  
    35    17    18 1   
    36    17    24 ar  
    37    18    19 ar  
    38    18    23 ar  
    39    19    20 ar  
    40    19    46 1   
    41    20    21 ar  
    42    20    47 1   
    43    21    22 ar  
    44    21    48 1   
    45    22    23 ar  
    46    22    49 1   
    47    24    25 ar  
    48    25    26 ar  
    49    25    27 ar  
    50    26    30 ar  
    51    27    28 ar  
    52    27    50 1   
    53    28    29 ar  
    54    28    51 1   
    55    29    30 ar  
    56    29    52 1   
    57    30    53 1   
@<TRIPOS>SUBSTRUCTURE
     1 FZ1         1 TEMP              0 ****  ****    0 ROOT
