@<TRIPOS>MOLECULE
FZ1
   53    57     1     0     0
SMALL
No Charge or Current Charge


@<TRIPOS>ATOM
      1 C52          8.9590     1.6820    -0.2650 c3         1 FZ1       0.149900
      2 O31          8.2870     0.4450     0.0340 os         1 FZ1      -0.343100
      3 C50          6.9120     0.3310     0.0180 ca         1 FZ1       0.113100
      4 C43          6.3520    -0.9190     0.3230 ca         1 FZ1      -0.145000
      5 C4           4.9560    -1.0950     0.3230 ca         1 FZ1      -0.115000
      6 C5           4.0960    -0.0200     0.0130 ca         1 FZ1       0.244000
      7 C1           4.6650     1.2330    -0.2920 ca         1 FZ1      -0.115000
      8 C42          6.0610     1.4140    -0.2910 ca         1 FZ1      -0.145000
      9 N6           2.6880    -0.1750     0.0070 nh         1 FZ1      -0.781400
     10 C2           2.0160    -1.2370     0.8260 c6         1 FZ1       0.184300
     11 C7           0.5140    -0.9160     1.1250 c6         1 FZ1       0.206300
     12 N9          -0.2630    -0.5900    -0.1120 nh         1 FZ1      -0.776300
     13 C8           0.3960     0.5000    -0.9030 c6         1 FZ1       0.206300
     14 C3           1.8980     0.1920    -1.2140 c6         1 FZ1       0.184300
     15 C22         -1.6740    -0.6800    -0.0710 ca         1 FZ1       0.393900
     16 N23         -2.3480     0.4860    -0.0660 nb         1 FZ1      -0.233000
     17 C24         -3.6980     0.4490    -0.0000 cp         1 FZ1       0.127000
     18 C28         -4.4560     1.7650     0.0010 cp         1 FZ1       0.291000
     19 C29         -5.8770     1.8130     0.0750 ca         1 FZ1      -0.118000
     20 C30         -6.5440     3.0500     0.0740 ca         1 FZ1      -0.088000
     21 C31         -5.7720     4.2180    -0.0020 ca         1 FZ1      -0.153000
     22 C32         -4.3750     4.1070    -0.0730 ca         1 FZ1       0.326900
     23 N33         -3.7330     2.9160    -0.0710 nb         1 FZ1      -0.631000
     24 N25         -4.4190    -0.6930     0.0620 nb         1 FZ1      -0.206000
     25 C26         -3.7730    -1.8760     0.0490 ca         1 FZ1       0.047000
     26 C27         -2.3600    -1.9170    -0.0250 ca         1 FZ1      -0.158000
     27 C37         -4.4940    -3.0830     0.1010 ca         1 FZ1      -0.099000
     28 C36         -3.8280    -4.3190     0.0730 ca         1 FZ1      -0.083000
     29 C35         -2.4270    -4.3580    -0.0150 ca         1 FZ1      -0.128000
     30 C34         -1.6930    -3.1630    -0.0670 ca         1 FZ1      -0.067000
     31 H1           8.7220     2.0180    -1.2830 h1         1 FZ1       0.039033
     32 H2           8.6650     2.4670     0.4430 h1         1 FZ1       0.039033
     33 H3          10.0460     1.5510    -0.1950 h1         1 FZ1       0.039033
     34 H4           7.0030    -1.7570     0.5610 ha         1 FZ1       0.120500
     35 H5           4.5500    -2.0750     0.5530 ha         1 FZ1       0.114000
     36 H6           4.0210     2.0770    -0.5190 ha         1 FZ1       0.114000
     37 H7           6.4590     2.3960    -0.5290 ha         1 FZ1       0.120500
     38 H8           2.0680    -2.2000     0.2970 h1         1 FZ1       0.044950
     39 H9           2.5360    -1.3610     1.7870 h1         1 FZ1       0.044950
     40 H10          0.0720    -1.7770     1.6480 h1         1 FZ1       0.062200
     41 H11          0.4730    -0.0650     1.8210 h1         1 FZ1       0.062200
     42 H12         -0.1300     0.6490    -1.8580 h1         1 FZ1       0.062200
     43 H13          0.3430     1.4490    -0.3500 h1         1 FZ1       0.062200
     44 H14          2.3320     1.0710    -1.7120 h1         1 FZ1       0.044950
     45 H15          1.9400    -0.6370    -1.9370 h1         1 FZ1       0.044950
     46 H16         -6.4590     0.8980     0.1330 ha         1 FZ1       0.146000
     47 H17         -7.6300     3.0990     0.1300 ha         1 FZ1       0.120000
     48 H18         -6.2420     5.1980    -0.0060 ha         1 FZ1       0.123000
     49 H19         -3.7490     4.9960    -0.1320 h4         1 FZ1       0.019100
     50 H20         -5.5800    -3.0610     0.1610 ha         1 FZ1       0.133000
     51 H21         -4.3970    -5.2460     0.1130 ha         1 FZ1       0.117000
     52 H22         -1.9110    -5.3150    -0.0460 ha         1 FZ1       0.117000
     53 H23         -0.6100    -3.2130    -0.1490 ha         1 FZ1       0.120000
@<TRIPOS>BOND
     1     1     2 1   
     2     1    31 1   
     3     1    32 1   
     4     1    33 1   
     5     2     3 1   
     6     3     4 ar  
     7     3     8 ar  
     8     4     5 ar  
     9     4    34 1   
    10     5     6 ar  
    11     5    35 1   
    12     6     7 ar  
    13     6     9 1   
    14     7     8 ar  
    15     7    36 1   
    16     8    37 1   
    17     9    10 1   
    18     9    14 1   
    19    10    11 1   
    20    10    38 1   
    21    10    39 1   
    22    11    12 1   
    23    11    40 1   
    24    11    41 1   
    25    12    13 1   
    26    12    15 1   
    27    13    14 1   
    28    13    42 1   
    29    13    43 1   
    30    14    44 1   
    31    14    45 1   
    32    15    16 ar  
    33    15    26 ar  
    34    16    17 ar  
    35    17    18 1   
    36    17    24 ar  
    37    18    19 ar  
    38    18    23 ar  
    39    19    20 ar  
    40    19    46 1   
    41    20    21 ar  
    42    20    47 1   
    43    21    22 ar  
    44    21    48 1   
    45    22    23 ar  
    46    22    49 1   
    47    24    25 ar  
    48    25    26 ar  
    49    25    27 ar  
    50    26    30 ar  
    51    27    28 ar  
    52    27    50 1   
    53    28    29 ar  
    54    28    51 1   
    55    29    30 ar  
    56    29    52 1   
    57    30    53 1   
@<TRIPOS>SUBSTRUCTURE
     1 FZ1         1 TEMP              0 ****  ****    0 ROOT
