@<TRIPOS>MOLECULE
FZ3
   28    29     1     0     0
SMALL
No Charge or Current Charge


@<TRIPOS>ATOM
      1 Cl1          9.6850   -12.3880   -24.0490 cl         1 FZ3      -0.203000
      2 C01          8.3020   -12.0220   -23.0250 ca         1 FZ3       0.121000
      3 C02          8.1390   -12.6910   -21.8010 ca         1 FZ3      -0.100000
      4 C03          7.0340   -12.3980   -20.9820 ca         1 FZ3      -0.098000
      5 C04          6.0870   -11.4360   -21.3850 ca         1 FZ3      -0.080300
      6 C05          6.2580   -10.7670   -22.6130 ca         1 FZ3      -0.098000
      7 C06          7.3640   -11.0600   -23.4320 ca         1 FZ3      -0.100000
      8 C07          4.8940   -11.1140   -20.4960 c3         1 FZ3      -0.029100
      9 C08          5.2020    -9.9670   -19.5110 c3         1 FZ3      -0.097400
     10 C09          4.0090    -9.6210   -18.5970 c3         1 FZ3       0.071600
     11 N10          4.3090    -8.5260   -17.6630 na         1 FZ3      -0.168500
     12 C11          4.2000    -7.1770   -17.9210 cc         1 FZ3      -0.234000
     13 C12          4.5860    -6.5490   -16.7650 cd         1 FZ3       0.229900
     14 N13          4.9300    -7.4750   -15.8010 nd         1 FZ3      -0.671000
     15 C14          4.7560    -8.6620   -16.3640 cc         1 FZ3       0.386400
     16 H1           8.8690   -13.4340   -21.4880 ha         1 FZ3       0.131000
     17 H2           6.9160   -12.9180   -20.0340 ha         1 FZ3       0.116000
     18 H3           5.5360   -10.0190   -22.9330 ha         1 FZ3       0.116000
     19 H4           7.4930   -10.5430   -24.3790 ha         1 FZ3       0.131000
     20 H5           4.0290   -10.8390   -21.1120 hc         1 FZ3       0.049200
     21 H6           4.5950   -12.0060   -19.9300 hc         1 FZ3       0.049200
     22 H7           6.0620   -10.2470   -18.8900 hc         1 FZ3       0.059200
     23 H8           5.4920    -9.0740   -20.0770 hc         1 FZ3       0.059200
     24 H9           3.1490    -9.3280   -19.2140 h1         1 FZ3       0.058700
     25 H10          3.7200   -10.5090   -18.0190 h1         1 FZ3       0.058700
     26 H11          3.8710    -6.7730   -18.8700 h4         1 FZ3       0.154000
     27 H12          4.6360    -5.4830   -16.5740 h4         1 FZ3       0.037100
     28 H13          4.9290    -9.6290   -15.9050 h5         1 FZ3       0.051100
@<TRIPOS>BOND
     1     1     2 1   
     2     2     3 ar  
     3     2     7 ar  
     4     3     4 ar  
     5     3    16 1   
     6     4     5 ar  
     7     4    17 1   
     8     5     6 ar  
     9     5     8 1   
    10     6     7 ar  
    11     6    18 1   
    12     7    19 1   
    13     8     9 1   
    14     8    20 1   
    15     8    21 1   
    16     9    10 1   
    17     9    22 1   
    18     9    23 1   
    19    10    11 1   
    20    10    24 1   
    21    10    25 1   
    22    11    12 1   
    23    11    15 1   
    24    12    13 2   
    25    12    26 1   
    26    13    14 1   
    27    13    27 1   
    28    14    15 2   
    29    15    28 1   
@<TRIPOS>SUBSTRUCTURE
     1 FZ3         1 TEMP              0 ****  ****    0 ROOT
