@<TRIPOS>MOLECULE
FZ3
   28    29     1     0     0
SMALL
abcg2


@<TRIPOS>ATOM
      1 CL1          9.6320   -12.2850   -23.9970 cl         1 FZ3      -0.203000
      2 C01          8.2650   -11.9610   -22.9770 ca         1 FZ3       0.121000
      3 C02          8.0700   -12.7220   -21.8370 ca         1 FZ3      -0.100000
      4 C03          6.9730   -12.4550   -21.0290 ca         1 FZ3      -0.098000
      5 C04          6.0700   -11.4440   -21.3430 ca         1 FZ3      -0.080300
      6 C05          6.2940   -10.6970   -22.4970 ca         1 FZ3      -0.098000
      7 C06          7.3840   -10.9460   -23.3180 ca         1 FZ3      -0.100000
      8 C07          4.9100   -11.1370   -20.4390 c3         1 FZ3      -0.029100
      9 C08          5.2000    -9.9440   -19.5290 c3         1 FZ3      -0.097400
     10 C09          4.0370    -9.6700   -18.5850 c3         1 FZ3       0.071600
     11 N10          4.2980    -8.5570   -17.6960 na         1 FZ3      -0.168500
     12 C11          4.2430    -7.2290   -18.0110 cc         1 FZ3      -0.234000
     13 C12          4.6350    -6.5670   -16.8820 cd         1 FZ3       0.229900
     14 N13          4.9330    -7.4590   -15.8910 nd         1 FZ3      -0.671000
     15 C14          4.7230    -8.6390   -16.4170 cc         1 FZ3       0.386400
     16 H1           8.7600   -13.5130   -21.5770 ha         1 FZ3       0.131000
     17 H2           6.8220   -13.0540   -20.1380 ha         1 FZ3       0.116000
     18 H3           5.6050    -9.9060   -22.7690 ha         1 FZ3       0.116000
     19 H4           7.5390   -10.3570   -24.2120 ha         1 FZ3       0.131000
     20 H5           4.0170   -10.9320   -21.0350 hc         1 FZ3       0.049200
     21 H6           4.6820   -12.0140   -19.8270 hc         1 FZ3       0.049200
     22 H7           6.1030   -10.1360   -18.9420 hc         1 FZ3       0.059200
     23 H8           5.3990    -9.0570   -20.1360 hc         1 FZ3       0.059200
     24 H9           3.1260    -9.4600   -19.1470 h1         1 FZ3       0.058700
     25 H10          3.8370   -10.5460   -17.9660 h1         1 FZ3       0.058700
     26 H11          3.9280    -6.8790   -18.9800 h4         1 FZ3       0.154000
     27 H12          4.7110    -5.5010   -16.7330 h4         1 FZ3       0.037100
     28 H13          4.8560    -9.5890   -15.9200 h5         1 FZ3       0.051100
@<TRIPOS>BOND
     1     1     2 1   
     2     2     3 ar  
     3     2     7 ar  
     4     3     4 ar  
     5     3    16 1   
     6     4     5 ar  
     7     4    17 1   
     8     5     6 ar  
     9     5     8 1   
    10     6     7 ar  
    11     6    18 1   
    12     7    19 1   
    13     8     9 1   
    14     8    20 1   
    15     8    21 1   
    16     9    10 1   
    17     9    22 1   
    18     9    23 1   
    19    10    11 1   
    20    10    24 1   
    21    10    25 1   
    22    11    12 1   
    23    11    15 1   
    24    12    13 2   
    25    12    26 1   
    26    13    14 1   
    27    13    27 1   
    28    14    15 2   
    29    15    28 1   
@<TRIPOS>SUBSTRUCTURE
     1 FZ3         1 TEMP              0 ****  ****    0 ROOT
