@<TRIPOS>MOLECULE
FZ5
   61    63     1     0     0
SMALL
No Charge or Current Charge


@<TRIPOS>ATOM
      1 C4          -6.3410     0.0050     0.8520 c6         1 FZ5       0.145300
      2 C5          -5.3180     1.1510     0.5660 c6         1 FZ5       0.177300
      3 C6          -5.3700     2.2820     1.6460 c3         1 FZ5       0.171600
      4 C3          -6.1630    -1.1240    -0.2070 c6         1 FZ5       0.133300
      5 CAA          7.9520     2.1210    -0.6250 c3         1 FZ5       0.157900
      6 CAY          6.9270     0.1420     0.4510 ca         1 FZ5       0.044100
      7 CAN          5.6150     0.6410     0.2840 ca         1 FZ5      -0.150000
      8 CAW          7.1200    -1.1080     1.0730 ca         1 FZ5       0.117100
      9 OAE          8.3850    -1.5940     1.2360 oh         1 FZ5      -0.537100
     10 CAK          6.0200    -1.8550     1.5220 ca         1 FZ5      -0.124000
     11 CAJ          4.7170    -1.3560     1.3540 ca         1 FZ5      -0.100000
     12 CAV          4.5100    -0.1070     0.7380 ca         1 FZ5      -0.082300
     13 CAP          3.0960     0.4280     0.5500 c3         1 FZ5      -0.026100
     14 CBA          1.0570     0.5150    -0.9900 ca         1 FZ5      -0.059300
     15 CBB         -0.0290    -0.3450    -0.6740 ca         1 FZ5      -0.150600
     16 CAU          0.2070    -1.7360    -0.1640 c          1 FZ5       0.599700
     17 CAB          0.0700    -2.8880    -1.1570 c3         1 FZ5      -0.198100
     18 OAC          0.5120    -1.9430     1.0040 o          1 FZ5      -0.504100
     19 CAX          0.7860     1.8230    -1.4580 ca         1 FZ5       0.116100
     20 OAF          1.8010     2.6850    -1.7630 oh         1 FZ5      -0.535100
     21 CAL         -0.5380     2.2580    -1.6150 ca         1 FZ5      -0.171000
     22 CAM         -1.6080     1.4050    -1.3060 ca         1 FZ5      -0.117000
     23 CAZ         -1.3590     0.0980    -0.8300 ca         1 FZ5       0.113100
     24 O1          -2.3780    -0.7820    -0.5070 os         1 FZ5      -0.342100
     25 C1          -3.7610    -0.3740    -0.5050 c6         1 FZ5       0.370300
     26 O5          -3.9710     0.6080     0.5320 os         1 FZ5      -0.464000
     27 O6          -4.4060     3.3340     1.4220 oh         1 FZ5      -0.718000
     28 O4          -7.7040     0.4710     0.8370 oh         1 FZ5      -0.717000
     29 O3          -7.0430    -2.2270     0.0690 oh         1 FZ5      -0.664000
     30 C2          -4.6860    -1.6080    -0.2380 c6         1 FZ5       0.114300
     31 O2          -4.5240    -2.6610    -1.2220 oh         1 FZ5      -0.723000
     32 H1          -6.1070    -0.4170     1.8420 h1         1 FZ5       0.058700
     33 H2          -5.5420     1.6030    -0.4110 h1         1 FZ5       0.060700
     34 H3          -6.3850     2.7030     1.6540 h1         1 FZ5       0.040200
     35 H4          -5.2030     1.8210     2.6290 h1         1 FZ5       0.040200
     36 H5          -6.4000    -0.7050    -1.1980 h1         1 FZ5       0.053700
     37 H6           7.4750     2.8570     0.0350 h1         1 FZ5       0.040367
     38 H7           8.9530     2.4930    -0.8800 h1         1 FZ5       0.040367
     39 H8           7.3700     2.0480    -1.5520 h1         1 FZ5       0.040367
     40 H10          8.9900    -0.9190     0.8540 ho         1 FZ5       0.479000
     41 H11          6.1760    -2.8190     2.0000 ha         1 FZ5       0.129000
     42 H12          3.8680    -1.9410     1.7020 ha         1 FZ5       0.123000
     43 H13          2.4410     0.0480     1.3430 hc         1 FZ5       0.058200
     44 H14          3.0890     1.5200     0.6500 hc         1 FZ5       0.058200
     45 H17         -0.9060    -2.8270    -1.6490 hc         1 FZ5       0.064033
     46 H18          0.7560    -2.7090    -1.9930 hc         1 FZ5       0.064033
     47 H19          0.2390    -3.8680    -0.6970 hc         1 FZ5       0.064033
     48 H20          1.4110     3.5320    -2.0680 ho         1 FZ5       0.464000
     49 H21         -0.7470     3.2630    -1.9750 ha         1 FZ5       0.117000
     50 H22         -2.6190     1.7780    -1.4360 ha         1 FZ5       0.149000
     51 H23         -4.0140     0.0570    -1.4850 h2         1 FZ5       0.045700
     52 H24         -4.4690     3.9500     2.1880 ho         1 FZ5       0.508000
     53 H25         -8.2490    -0.3470     0.7250 ho         1 FZ5       0.526000
     54 H26         -6.6550    -2.9860    -0.4270 ho         1 FZ5       0.465000
     55 H27         -4.4330    -1.9940     0.7620 h1         1 FZ5       0.073700
     56 H28         -3.5610    -2.8740    -1.2580 ho         1 FZ5       0.523000
     57 CAQ          2.5090     0.0430    -0.8230 c3         1 FZ5      -0.021100
     58 H9           5.4360     1.6000    -0.1940 ha         1 FZ5       0.118000
     59 OAR          8.0460     0.8380     0.0230 os         1 FZ5      -0.370100
     60 H15          3.1430     0.4670    -1.6110 hc         1 FZ5       0.052700
     61 H16          2.5900    -1.0420    -0.9540 hc         1 FZ5       0.052700
@<TRIPOS>BOND
     1     1     2 1   
     2     1     4 1   
     3     1    28 1   
     4     1    32 1   
     5     2     3 1   
     6     2    26 1   
     7     2    33 1   
     8     3    27 1   
     9     3    34 1   
    10     3    35 1   
    11     4    29 1   
    12     4    30 1   
    13     4    36 1   
    14     5    37 1   
    15     5    38 1   
    16     5    39 1   
    17     5    59 1   
    18     6     7 ar  
    19     6     8 ar  
    20     6    59 1   
    21     7    12 ar  
    22     7    58 1   
    23     8     9 1   
    24     8    10 ar  
    25     9    40 1   
    26    10    11 ar  
    27    10    41 1   
    28    11    12 ar  
    29    11    42 1   
    30    12    13 1   
    31    13    43 1   
    32    13    44 1   
    33    13    57 1   
    34    14    15 ar  
    35    14    19 ar  
    36    14    57 1   
    37    15    16 1   
    38    15    23 ar  
    39    16    17 1   
    40    16    18 2   
    41    17    45 1   
    42    17    46 1   
    43    17    47 1   
    44    19    20 1   
    45    19    21 ar  
    46    20    48 1   
    47    21    22 ar  
    48    21    49 1   
    49    22    23 ar  
    50    22    50 1   
    51    23    24 1   
    52    24    25 1   
    53    25    26 1   
    54    25    30 1   
    55    25    51 1   
    56    27    52 1   
    57    28    53 1   
    58    29    54 1   
    59    30    31 1   
    60    30    55 1   
    61    31    56 1   
    62    57    60 1   
    63    57    61 1   
@<TRIPOS>SUBSTRUCTURE
     1 FZ5         1 TEMP              0 ****  ****    0 ROOT
