@<TRIPOS>MOLECULE
FZ5
   61    63     1     0     0
SMALL
abcg2


@<TRIPOS>ATOM
      1 C4          -6.4040    -0.1630     0.2960 c6         1 FZ5       0.145300
      2 C5          -5.4930     1.0620     0.2180 c6         1 FZ5       0.177300
      3 C6          -5.9940     2.2210     1.0500 c3         1 FZ5       0.171600
      4 C3          -5.7680    -1.3200    -0.4700 c6         1 FZ5       0.133300
      5 CAA          7.6970     1.7280    -1.4060 c3         1 FZ5       0.157900
      6 CAY          6.8990    -0.0430    -0.0340 ca         1 FZ5       0.044100
      7 CAN          5.6210     0.4810     0.0660 ca         1 FZ5      -0.150000
      8 CAW          7.2020    -1.2700     0.5800 ca         1 FZ5       0.117100
      9 OAE          8.4400    -1.8070     0.5050 oh         1 FZ5      -0.537100
     10 CAK          6.2120    -1.9380     1.2760 ca         1 FZ5      -0.124000
     11 CAJ          4.9300    -1.4040     1.3690 ca         1 FZ5      -0.100000
     12 CAV          4.6200    -0.1940     0.7690 ca         1 FZ5      -0.082300
     13 CAP          3.2280     0.3710     0.8230 c3         1 FZ5      -0.026100
     14 CBA          1.0680     0.6980    -0.4300 ca         1 FZ5      -0.059300
     15 CBB         -0.0250    -0.0890    -0.0810 ca         1 FZ5      -0.150600
     16 CAU          0.1450    -1.5540     0.2080 c          1 FZ5       0.599700
     17 CAB         -0.1260    -2.4750    -0.9430 c3         1 FZ5      -0.198100
     18 OAC          0.5030    -1.9350     1.2980 o          1 FZ5      -0.504100
     19 CAX          0.8450     2.0540    -0.6980 ca         1 FZ5       0.116100
     20 OAF          1.9150     2.8080    -1.0300 oh         1 FZ5      -0.535100
     21 CAL         -0.4350     2.5850    -0.6100 ca         1 FZ5      -0.171000
     22 CAM         -1.5150     1.7930    -0.2460 ca         1 FZ5      -0.117000
     23 CAZ         -1.3070     0.4470     0.0130 ca         1 FZ5       0.113100
     24 O1          -2.2860    -0.4290     0.3940 os         1 FZ5      -0.342100
     25 C1          -3.5720    -0.2430    -0.1020 c6         1 FZ5       0.370300
     26 O5          -4.2100     0.7090     0.6980 os         1 FZ5      -0.464000
     27 O6          -5.1450     3.3230     0.8310 oh         1 FZ5      -0.718000
     28 O4          -7.6530     0.1860    -0.2450 oh         1 FZ5      -0.717000
     29 O3          -6.5750    -2.4540    -0.2700 oh         1 FZ5      -0.664000
     30 C2          -4.3320    -1.5630    -0.0130 c6         1 FZ5       0.114300
     31 O2          -3.7720    -2.5490    -0.8450 oh         1 FZ5      -0.723000
     32 H1          -6.4990    -0.4570     1.3540 h1         1 FZ5       0.058700
     33 H2          -5.4240     1.3840    -0.8340 h1         1 FZ5       0.060700
     34 H3          -7.0260     2.4380     0.7540 h1         1 FZ5       0.040200
     35 H4          -6.0150     1.9220     2.1060 h1         1 FZ5       0.040200
     36 H5          -5.7440    -1.0410    -1.5360 h1         1 FZ5       0.053700
     37 H6           7.4130     2.5500    -0.7440 h1         1 FZ5       0.040367
     38 H7           8.6310     1.9820    -1.9000 h1         1 FZ5       0.040367
     39 H8           6.9190     1.5970    -2.1620 h1         1 FZ5       0.040367
     40 H10          9.0060    -1.2590    -0.0510 ho         1 FZ5       0.479000
     41 H11          6.4470    -2.8840     1.7490 ha         1 FZ5       0.129000
     42 H12          4.1700    -1.9450     1.9200 ha         1 FZ5       0.123000
     43 H13          2.6750    -0.0890     1.6440 hc         1 FZ5       0.058200
     44 H14          3.2640     1.4430     1.0300 hc         1 FZ5       0.058200
     45 H17         -1.0850    -2.2390    -1.4060 hc         1 FZ5       0.064033
     46 H18          0.6340    -2.3150    -1.7110 hc         1 FZ5       0.064033
     47 H19         -0.1070    -3.5200    -0.6390 hc         1 FZ5       0.064033
     48 H20          1.6450     3.7170    -1.2020 ho         1 FZ5       0.464000
     49 H21         -0.6000     3.6370    -0.8130 ha         1 FZ5       0.117000
     50 H22         -2.4910     2.2460    -0.1420 ha         1 FZ5       0.149000
     51 H23         -3.5290     0.1010    -1.1510 h2         1 FZ5       0.045700
     52 H24         -5.4560     4.0520     1.3750 ho         1 FZ5       0.508000
     53 H25         -8.2340    -0.5800    -0.1860 ho         1 FZ5       0.526000
     54 H26         -6.2860    -3.1460    -0.8720 ho         1 FZ5       0.465000
     55 H27         -4.3400    -1.8820     1.0380 h1         1 FZ5       0.073700
     56 H28         -3.1360    -3.0610    -0.3380 ho         1 FZ5       0.523000
     57 CAQ          2.4620     0.1350    -0.4870 c3         1 FZ5      -0.021100
     58 H9           5.3830     1.4310    -0.3970 ha         1 FZ5       0.118000
     59 OAR          7.9330     0.5330    -0.6880 os         1 FZ5      -0.370100
     60 H15          3.0120     0.5830    -1.3170 hc         1 FZ5       0.052700
     61 H16          2.4410    -0.9370    -0.6930 hc         1 FZ5       0.052700
@<TRIPOS>BOND
     1     1     2 1   
     2     1     4 1   
     3     1    28 1   
     4     1    32 1   
     5     2     3 1   
     6     2    26 1   
     7     2    33 1   
     8     3    27 1   
     9     3    34 1   
    10     3    35 1   
    11     4    29 1   
    12     4    30 1   
    13     4    36 1   
    14     5    37 1   
    15     5    38 1   
    16     5    39 1   
    17     5    59 1   
    18     6     7 ar  
    19     6     8 ar  
    20     6    59 1   
    21     7    12 ar  
    22     7    58 1   
    23     8     9 1   
    24     8    10 ar  
    25     9    40 1   
    26    10    11 ar  
    27    10    41 1   
    28    11    12 ar  
    29    11    42 1   
    30    12    13 1   
    31    13    43 1   
    32    13    44 1   
    33    13    57 1   
    34    14    15 ar  
    35    14    19 ar  
    36    14    57 1   
    37    15    16 1   
    38    15    23 ar  
    39    16    17 1   
    40    16    18 2   
    41    17    45 1   
    42    17    46 1   
    43    17    47 1   
    44    19    20 1   
    45    19    21 ar  
    46    20    48 1   
    47    21    22 ar  
    48    21    49 1   
    49    22    23 ar  
    50    22    50 1   
    51    23    24 1   
    52    24    25 1   
    53    25    26 1   
    54    25    30 1   
    55    25    51 1   
    56    27    52 1   
    57    28    53 1   
    58    29    54 1   
    59    30    31 1   
    60    30    55 1   
    61    31    56 1   
    62    57    60 1   
    63    57    61 1   
@<TRIPOS>SUBSTRUCTURE
     1 FZ5         1 TEMP              0 ****  ****    0 ROOT
