@<TRIPOS>MOLECULE
FZ6
   29    29     1     0     0
SMALL
abcg2


@<TRIPOS>ATOM
      1 C01         -8.5270     6.4510    -9.7550 ca         1 FZ6       0.121100
      2 C02         -8.3330     6.3940    -8.3890 ca         1 FZ6      -0.167000
      3 C03         -7.6680     5.3000    -7.8300 ca         1 FZ6      -0.007000
      4 C04         -7.2150     4.2790    -8.6690 ca         1 FZ6      -0.124000
      5 C05         -7.4240     4.3740   -10.0370 ca         1 FZ6      -0.075000
      6 C06         -8.0800     5.4550   -10.6040 ca         1 FZ6      -0.128000
      7 O07         -9.1380     7.5820   -10.2850 os         1 FZ6      -0.404100
      8 N08         -7.5010     5.3190    -6.4450 ns         1 FZ6      -0.152000
      9 C09         -6.9280     4.3910    -5.6330 c          1 FZ6       0.607100
     10 O10         -6.4310     3.3540    -6.0270 o          1 FZ6      -0.556100
     11 C11         -7.0180     4.7360    -4.1510 c3         1 FZ6       0.047500
     12 C12        -10.4630     7.5490   -10.4750 c3         1 FZ6       0.515000
     13 N16         -5.9320     4.0880    -3.4490 n8         1 FZ6      -0.972200
     14 C17         -8.4220     4.3810    -3.6280 c3         1 FZ6       0.121600
     15 O18         -8.6900     3.0010    -3.6660 oh         1 FZ6      -0.651000
     16 F13        -10.8370     6.6170   -11.3540 f          1 FZ6      -0.109000
     17 F14        -11.1400     7.3120    -9.3500 f          1 FZ6      -0.109000
     18 F15        -10.8310     8.7320   -10.9420 f          1 FZ6      -0.109000
     19 H1          -8.6830     7.2040    -7.7600 ha         1 FZ6       0.129000
     20 H2          -6.6990     3.4230    -8.2710 ha         1 FZ6       0.155000
     21 H3          -7.0610     3.5800   -10.6760 ha         1 FZ6       0.125000
     22 H4          -8.2220     5.5240   -11.6740 ha         1 FZ6       0.138000
     23 H5          -7.8560     6.1460    -5.9900 hn         1 FZ6       0.152000
     24 H6          -6.9020     5.8180    -4.0330 h1         1 FZ6       0.071700
     25 H7          -5.9580     4.3730    -2.4780 hn         1 FZ6       0.413500
     26 H8          -6.0770     3.0850    -3.4500 hn         1 FZ6       0.413500
     27 H10         -8.4690     4.6840    -2.5790 h1         1 FZ6       0.049700
     28 H11         -9.1860     4.9630    -4.1590 h1         1 FZ6       0.049700
     29 H12         -8.8810     2.7380    -4.5720 ho         1 FZ6       0.454000
@<TRIPOS>BOND
     1     1     2 ar  
     2     1     6 ar  
     3     1     7 1   
     4     2     3 ar  
     5     2    19 1   
     6     3     4 ar  
     7     3     8 1   
     8     4     5 ar  
     9     4    20 1   
    10     5     6 ar  
    11     5    21 1   
    12     6    22 1   
    13     7    12 1   
    14     8     9 1   
    15     8    23 1   
    16     9    10 2   
    17     9    11 1   
    18    11    13 1   
    19    11    14 1   
    20    11    24 1   
    21    12    16 1   
    22    12    17 1   
    23    12    18 1   
    24    13    25 1   
    25    13    26 1   
    26    14    15 1   
    27    14    27 1   
    28    14    28 1   
    29    15    29 1   
@<TRIPOS>SUBSTRUCTURE
     1 FZ6         1 TEMP              0 ****  ****    0 ROOT
