@<TRIPOS>MOLECULE
FZ6
   29    29     1     0     0
SMALL
No Charge or Current Charge


@<TRIPOS>ATOM
      1 C01         -8.9310     6.5800    -9.6280 ca         1 FZ6       0.121100
      2 C02         -8.6170     6.4620    -8.2640 ca         1 FZ6      -0.167000
      3 C03         -8.1240     5.2580    -7.7270 ca         1 FZ6      -0.007000
      4 C04         -7.9460     4.1520    -8.5880 ca         1 FZ6      -0.124000
      5 C05         -8.2570     4.2600    -9.9540 ca         1 FZ6      -0.075000
      6 C06         -8.7480     5.4670   -10.4780 ca         1 FZ6      -0.128000
      7 O07         -9.4090     7.8030   -10.0610 os         1 FZ6      -0.404100
      8 N08         -7.8350     5.2300    -6.3350 ns         1 FZ6      -0.152000
      9 C09         -7.3430     4.2340    -5.4990 c          1 FZ6       0.607100
     10 O10         -7.0470     3.1020    -5.8740 o          1 FZ6      -0.556100
     11 C11         -7.1980     4.6630    -3.9970 c3         1 FZ6       0.047500
     12 C12         -9.7760     8.0890   -11.4260 c3         1 FZ6       0.515000
     13 N16         -5.7800     4.8410    -3.5080 n8         1 FZ6      -0.972200
     14 C17         -7.9900     3.6860    -3.0790 c3         1 FZ6       0.121600
     15 O18         -7.3270     2.4120    -2.9940 oh         1 FZ6      -0.651000
     16 F13         -8.7320     7.9460   -12.2750 f          1 FZ6      -0.109000
     17 F14        -10.7800     7.2930   -11.8610 f          1 FZ6      -0.109000
     18 F15        -10.2070     9.3640   -11.5460 f          1 FZ6      -0.109000
     19 H1          -8.7610     7.3240    -7.6160 ha         1 FZ6       0.129000
     20 H2          -7.5700     3.2020    -8.2230 ha         1 FZ6       0.155000
     21 H3          -8.1170     3.4030   -10.6100 ha         1 FZ6       0.125000
     22 H4          -8.9770     5.5140   -11.5380 ha         1 FZ6       0.138000
     23 H5          -8.0200     6.1070    -5.8650 hn         1 FZ6       0.152000
     24 H6          -7.6910     5.6420    -3.9110 h1         1 FZ6       0.071700
     25 H7          -5.7910     5.1020    -2.5130 hn         1 FZ6       0.413500
     26 H8          -5.3190     3.9210    -3.4920 hn         1 FZ6       0.413500
     27 H10         -8.0810     4.1300    -2.0780 h1         1 FZ6       0.049700
     28 H11         -9.0090     3.5660    -3.4730 h1         1 FZ6       0.049700
     29 H12         -7.1890     2.1020    -3.9190 ho         1 FZ6       0.454000
@<TRIPOS>BOND
     1     1     2 ar  
     2     1     6 ar  
     3     1     7 1   
     4     2     3 ar  
     5     2    19 1   
     6     3     4 ar  
     7     3     8 1   
     8     4     5 ar  
     9     4    20 1   
    10     5     6 ar  
    11     5    21 1   
    12     6    22 1   
    13     7    12 1   
    14     8     9 1   
    15     8    23 1   
    16     9    10 2   
    17     9    11 1   
    18    11    13 1   
    19    11    14 1   
    20    11    24 1   
    21    12    16 1   
    22    12    17 1   
    23    12    18 1   
    24    13    25 1   
    25    13    26 1   
    26    14    15 1   
    27    14    27 1   
    28    14    28 1   
    29    15    29 1   
@<TRIPOS>SUBSTRUCTURE
     1 FZ6         1 TEMP              0 ****  ****    0 ROOT
