@<TRIPOS>MOLECULE
FZ8
   41    45     1     0     0
SMALL
abcg2


@<TRIPOS>ATOM
      1 N01        -12.2020     7.4860   -14.6430 nb         1 FZ8      -0.232000
      2 C02        -12.4480     8.6300   -15.2680 ca         1 FZ8       0.195900
      3 N03        -12.8610     9.7860   -14.7470 nb         1 FZ8      -0.311000
      4 C04        -13.0930     9.8850   -13.4210 ca         1 FZ8       0.460900
      5 N05        -13.5590    11.0630   -12.9600 nh         1 FZ8      -0.763300
      6 C06        -13.4340    12.2930   -13.7450 c6         1 FZ8       0.214300
      7 C07        -12.2390    13.1010   -13.2370 c6         1 FZ8      -0.098900
      8 C08        -12.3580    13.3840   -11.7230 c6         1 FZ8      -0.073000
      9 C09        -11.1490    14.1110   -11.2310 cc         1 FZ8       0.416800
     10 N10        -11.0240    15.4670   -11.3740 na         1 FZ8      -0.324600
     11 C11         -9.7880    15.8330   -10.8830 ca         1 FZ8      -0.074200
     12 C12         -9.1370    17.0570   -10.7740 ca         1 FZ8      -0.117000
     13 C13         -7.8670    17.0430   -10.2100 ca         1 FZ8      -0.092000
     14 C14         -7.2720    15.8480    -9.7720 ca         1 FZ8      -0.134000
     15 C15         -7.9290    14.6290    -9.8830 ca         1 FZ8      -0.048000
     16 C16         -9.2050    14.6230   -10.4470 ca         1 FZ8       0.069400
     17 N17        -10.0820    13.5700   -10.6800 nd         1 FZ8      -0.573100
     18 C18        -12.6180    12.0910   -10.9410 c6         1 FZ8      -0.098900
     19 C19        -13.8020    11.3420   -11.5490 c6         1 FZ8       0.214300
     20 C20        -12.8370     8.7330   -12.6150 ca         1 FZ8      -0.380900
     21 C21        -12.8220     8.3180   -11.2490 cc         1 FZ8       0.389800
     22 N22        -12.4340     7.0620   -11.1360 nd         1 FZ8      -0.521100
     23 N23        -12.1860     6.6260   -12.3980 na         1 FZ8      -0.170100
     24 C24        -12.4000     7.5890   -13.3190 ca         1 FZ8       0.160500
     25 H1         -12.2960     8.6310   -16.3430 h5         1 FZ8       0.047100
     26 H2         -14.3580    12.8630   -13.6200 h1         1 FZ8       0.065950
     27 H3         -13.3200    12.0400   -14.7920 h1         1 FZ8       0.065950
     28 H4         -11.3220    12.5370   -13.4280 hc         1 FZ8       0.066950
     29 H5         -12.1740    14.0410   -13.7870 hc         1 FZ8       0.066950
     30 H6         -13.2200    14.0460   -11.5810 hc         1 FZ8       0.047700
     31 H7         -11.7210    16.0820   -11.7650 hn         1 FZ8       0.354000
     32 H8          -9.5960    17.9780   -11.1110 ha         1 FZ8       0.116000
     33 H9          -7.3230    17.9730   -10.1070 ha         1 FZ8       0.113000
     34 H10         -6.2800    15.8810    -9.3400 ha         1 FZ8       0.115000
     35 H11         -7.4690    13.7090    -9.5450 ha         1 FZ8       0.129000
     36 H13        -11.7320    11.4530   -10.9710 hc         1 FZ8       0.066950
     37 H14        -12.8240    12.3200    -9.8940 hc         1 FZ8       0.066950
     38 H15        -14.7000    11.9640   -11.4970 h1         1 FZ8       0.065950
     39 H16        -14.0240    10.4270   -11.0160 h1         1 FZ8       0.065950
     40 H17        -13.0590     8.8680   -10.3550 h4         1 FZ8       0.046800
     41 H12        -11.8600     5.6850   -12.5580 hn         1 FZ8       0.388000
@<TRIPOS>BOND
     1     1     2 ar  
     2     1    24 ar  
     3     2     3 ar  
     4     2    25 1   
     5     3     4 ar  
     6     4     5 1   
     7     4    20 ar  
     8     5     6 1   
     9     5    19 1   
    10     6     7 1   
    11     6    26 1   
    12     6    27 1   
    13     7     8 1   
    14     7    28 1   
    15     7    29 1   
    16     8     9 1   
    17     8    18 1   
    18     8    30 1   
    19     9    10 1   
    20     9    17 2   
    21    10    11 1   
    22    10    31 1   
    23    11    12 ar  
    24    11    16 ar  
    25    12    13 ar  
    26    12    32 1   
    27    13    14 ar  
    28    13    33 1   
    29    14    15 ar  
    30    14    34 1   
    31    15    16 ar  
    32    15    35 1   
    33    16    17 1   
    34    18    19 1   
    35    18    36 1   
    36    18    37 1   
    37    19    38 1   
    38    19    39 1   
    39    20    21 1   
    40    20    24 ar  
    41    21    22 2   
    42    21    40 1   
    43    22    23 1   
    44    23    24 1   
    45    23    41 1   
@<TRIPOS>SUBSTRUCTURE
     1 FZ8         1 TEMP              0 ****  ****    0 ROOT
