@<TRIPOS>MOLECULE
FZ8
   41    45     1     0     0
SMALL
No Charge or Current Charge


@<TRIPOS>ATOM
      1 N01        -14.0260     7.0940   -14.5780 nb         1 FZ8      -0.232000
      2 C02        -14.2520     8.2890   -15.1770 ca         1 FZ8       0.195900
      3 N03        -13.8600     9.5090   -14.7290 nb         1 FZ8      -0.311000
      4 C04        -13.1830     9.5360   -13.5610 ca         1 FZ8       0.460900
      5 N05        -12.7550    10.7770   -13.0590 nh         1 FZ8      -0.763300
      6 C06        -12.4510    11.9010   -13.9920 c6         1 FZ8       0.214300
      7 C07        -11.4220    12.8710   -13.3610 c6         1 FZ8      -0.098900
      8 C08        -11.9020    13.3880   -11.9770 c6         1 FZ8      -0.073000
      9 C09        -10.8660    14.2910   -11.3410 cc         1 FZ8       0.416800
     10 N10        -11.1110    15.6300   -11.0380 na         1 FZ8      -0.324600
     11 C11         -9.9770    16.1350   -10.4840 ca         1 FZ8      -0.074200
     12 C12         -9.6980    17.4220   -10.0080 ca         1 FZ8      -0.117000
     13 C13         -8.4110    17.6530    -9.4780 ca         1 FZ8      -0.092000
     14 C14         -7.4570    16.6070    -9.4410 ca         1 FZ8      -0.134000
     15 C15         -7.7840    15.3230    -9.9330 ca         1 FZ8      -0.048000
     16 C16         -9.0700    15.1180   -10.4540 ca         1 FZ8       0.069400
     17 N17         -9.6070    13.9510   -10.9880 nd         1 FZ8      -0.573100
     18 C18        -12.2340    12.1800   -11.0590 c6         1 FZ8      -0.098900
     19 C19        -13.2540    11.2310   -11.7310 c6         1 FZ8       0.214300
     20 C20        -12.9200     8.3380   -12.9020 ca         1 FZ8      -0.380900
     21 C21        -12.1940     8.0430   -11.7030 cc         1 FZ8       0.389800
     22 N22        -12.1720     6.7240   -11.4640 nd         1 FZ8      -0.521100
     23 N23        -12.8950     6.1920   -12.5420 na         1 FZ8      -0.170100
     24 C24        -13.3430     7.1540   -13.4230 ca         1 FZ8       0.160500
     25 H1         -14.8010     8.2680   -16.1170 h5         1 FZ8       0.047100
     26 H2         -13.3720    12.4510   -14.2390 h1         1 FZ8       0.065950
     27 H3         -12.0340    11.5190   -14.9360 h1         1 FZ8       0.065950
     28 H4         -10.4600    12.3520   -13.2560 hc         1 FZ8       0.066950
     29 H5         -11.2490    13.7160   -14.0410 hc         1 FZ8       0.066950
     30 H6         -12.8280    13.9590   -12.1320 hc         1 FZ8       0.047700
     31 H7         -11.9780    16.1230   -11.2060 hn         1 FZ8       0.354000
     32 H8         -10.4430    18.2140   -10.0440 ha         1 FZ8       0.116000
     33 H9          -8.1510    18.6390    -9.0970 ha         1 FZ8       0.113000
     34 H10         -6.4670    16.7920    -9.0310 ha         1 FZ8       0.115000
     35 H11         -7.0590    14.5130    -9.9090 ha         1 FZ8       0.129000
     36 H13        -11.3180    11.6180   -10.8280 hc         1 FZ8       0.066950
     37 H14        -12.6360    12.5330   -10.1000 hc         1 FZ8       0.066950
     38 H15        -14.2140    11.7550   -11.8500 h1         1 FZ8       0.065950
     39 H16        -13.4380    10.3770   -11.0630 h1         1 FZ8       0.065950
     40 H17        -11.6820     8.6900   -11.0020 h4         1 FZ8       0.046800
     41 H12        -13.0510     5.1900   -12.6400 hn         1 FZ8       0.388000
@<TRIPOS>BOND
     1     1     2 ar  
     2     1    24 ar  
     3     2     3 ar  
     4     2    25 1   
     5     3     4 ar  
     6     4     5 1   
     7     4    20 ar  
     8     5     6 1   
     9     5    19 1   
    10     6     7 1   
    11     6    26 1   
    12     6    27 1   
    13     7     8 1   
    14     7    28 1   
    15     7    29 1   
    16     8     9 1   
    17     8    18 1   
    18     8    30 1   
    19     9    10 1   
    20     9    17 2   
    21    10    11 1   
    22    10    31 1   
    23    11    12 ar  
    24    11    16 ar  
    25    12    13 ar  
    26    12    32 1   
    27    13    14 ar  
    28    13    33 1   
    29    14    15 ar  
    30    14    34 1   
    31    15    16 ar  
    32    15    35 1   
    33    16    17 1   
    34    18    19 1   
    35    18    36 1   
    36    18    37 1   
    37    19    38 1   
    38    19    39 1   
    39    20    21 1   
    40    20    24 ar  
    41    21    22 2   
    42    21    40 1   
    43    22    23 1   
    44    23    24 1   
    45    23    41 1   
@<TRIPOS>SUBSTRUCTURE
     1 FZ8         1 TEMP              0 ****  ****    0 ROOT
