@<TRIPOS>MOLECULE
FZ9
   40    44     1     0     0
SMALL
bcc


@<TRIPOS>ATOM
      1 N01         -4.8030    -1.7280     0.4170 nb         1 FZ9      -0.761000
      2 C02         -3.9970    -2.1150    -0.5500 ca         1 FZ9       0.725900
      3 N03         -2.9520    -1.4750    -1.0620 nb         1 FZ9      -0.839000
      4 C04         -2.6070    -0.2710    -0.5890 ca         1 FZ9       0.796200
      5 N05         -1.5730     0.3520    -1.1690 nh         1 FZ9      -0.758300
      6 C06         -1.1140     1.6740    -0.8060 c6         1 FZ9       0.215800
      7 C07          0.0930     1.5750     0.1100 c6         1 FZ9      -0.068200
      8 C08          1.1210     0.6380    -0.4810 ce         1 FZ9      -0.022200
      9 C09          2.4690     0.6980     0.0770 cc         1 FZ9      -0.104200
     10 C10          3.5270    -0.2830     0.0310 ca         1 FZ9      -0.080800
     11 C11          3.6560    -1.5780    -0.4900 ca         1 FZ9      -0.080000
     12 C12          4.8470    -2.2580    -0.3270 ca         1 FZ9      -0.156000
     13 C13          5.9300    -1.6790     0.3520 ca         1 FZ9      -0.108000
     14 C14          5.8320    -0.4120     0.8920 ca         1 FZ9      -0.145000
     15 C15          4.6270     0.2670     0.7280 ca         1 FZ9      -0.052200
     16 N16          4.2550     1.5010     1.1750 na         1 FZ9      -0.166400
     17 C17          2.9750     1.7540     0.7980 cd         1 FZ9      -0.098100
     18 C18          0.7740    -0.1840    -1.4800 c2         1 FZ9      -0.203200
     19 C19         -0.6210    -0.3470    -2.0080 c6         1 FZ9       0.253000
     20 C20         -3.3720     0.2610     0.4870 ca         1 FZ9      -0.516500
     21 C21         -3.4070     1.3700     1.3780 cc         1 FZ9       0.385800
     22 N22         -4.3940     1.2550     2.2280 nd         1 FZ9      -0.526100
     23 N23         -5.0170     0.1060     1.9380 na         1 FZ9      -0.108800
     24 C24         -4.4430    -0.5400     0.9120 ca         1 FZ9       0.482800
     25 H1          -4.2130    -3.0810    -0.9950 h5         1 FZ9       0.045100
     26 H2          -0.8270     2.1840    -1.7300 h1         1 FZ9       0.059700
     27 H3           0.5160     2.5740     0.2350 hc         1 FZ9       0.057200
     28 H4           2.8380    -2.0600    -1.0070 ha         1 FZ9       0.134000
     29 H5           4.9490    -3.2580    -0.7280 ha         1 FZ9       0.130000
     30 H6           6.8520    -2.2350     0.4590 ha         1 FZ9       0.130000
     31 H7           6.6590     0.0370     1.4290 ha         1 FZ9       0.131000
     32 H8           4.8310     2.1300     1.7090 hn         1 FZ9       0.300700
     33 H9           2.5120     2.6880     1.0700 h4         1 FZ9       0.160000
     34 H10          1.5140    -0.7970    -1.9770 ha         1 FZ9       0.137000
     35 H11         -0.8820    -1.4030    -2.0440 h1         1 FZ9       0.075700
     36 H12         -2.7570     2.2270     1.4430 h4         1 FZ9       0.044800
     37 H13         -5.8110    -0.1940     2.4830 hn         1 FZ9       0.336700
     38 H14         -1.9170     2.2630    -0.3770 h1         1 FZ9       0.059700
     39 H15         -0.2000     1.2370     1.1090 hc         1 FZ9       0.057200
     40 H16         -0.6880     0.0220    -3.0390 h1         1 FZ9       0.075700
@<TRIPOS>BOND
     1     1     2 ar  
     2     1    24 ar  
     3     2     3 ar  
     4     2    25 1   
     5     3     4 ar  
     6     4     5 1   
     7     4    20 ar  
     8     5     6 1   
     9     5    19 1   
    10     6     7 1   
    11     6    26 1   
    12     6    38 1   
    13     7     8 1   
    14     7    27 1   
    15     7    39 1   
    16     8     9 1   
    17     8    18 2   
    18     9    10 1   
    19     9    17 2   
    20    10    11 ar  
    21    10    15 ar  
    22    11    12 ar  
    23    11    28 1   
    24    12    13 ar  
    25    12    29 1   
    26    13    14 ar  
    27    13    30 1   
    28    14    15 ar  
    29    14    31 1   
    30    15    16 1   
    31    16    17 1   
    32    16    32 1   
    33    17    33 1   
    34    18    19 1   
    35    18    34 1   
    36    19    35 1   
    37    19    40 1   
    38    20    21 1   
    39    20    24 ar  
    40    21    22 2   
    41    21    36 1   
    42    22    23 1   
    43    23    24 1   
    44    23    37 1   
@<TRIPOS>SUBSTRUCTURE
     1 FZ9         1 TEMP              0 ****  ****    0 ROOT
