@<TRIPOS>MOLECULE
FZ9
   40    44     1     0     0
SMALL
No Charge or Current Charge


@<TRIPOS>ATOM
      1 N01         -5.6170    -0.7350    -0.5420 nb         1 FZ9      -0.235000
      2 C02         -4.9570    -0.4280    -1.6850 ca         1 FZ9       0.199900
      3 N03         -3.6400    -0.1290    -1.8080 nb         1 FZ9      -0.313000
      4 C04         -2.9100    -0.1250    -0.6720 ca         1 FZ9       0.467900
      5 N05         -1.5380     0.1710    -0.7600 nh         1 FZ9      -0.758300
      6 C06         -0.9550     1.2670     0.0580 c6         1 FZ9       0.215800
      7 C07          0.4760     0.8840     0.4880 c6         1 FZ9      -0.068200
      8 C08          1.3200     0.5040    -0.7280 ce         1 FZ9      -0.022200
      9 C09          2.7550     0.7250    -0.6220 cc         1 FZ9      -0.104200
     10 C10          3.6770     0.0230     0.2270 ca         1 FZ9      -0.080800
     11 C11          3.4530    -1.0210     1.1370 ca         1 FZ9      -0.062000
     12 C12          4.5630    -1.5290     1.8450 ca         1 FZ9      -0.138000
     13 C13          5.8540    -0.9920     1.6290 ca         1 FZ9      -0.090000
     14 C14          6.0440     0.0550     0.7020 ca         1 FZ9      -0.127000
     15 C15          4.9240     0.5400     0.0140 ca         1 FZ9      -0.052200
     16 N16          4.8800     1.5450    -0.9340 na         1 FZ9      -0.216700
     17 C17          3.5230     1.6470    -1.3280 cd         1 FZ9      -0.148100
     18 C18          0.7240     0.0570    -1.8550 c2         1 FZ9      -0.253200
     19 C19         -0.7830    -0.1110    -2.0140 c6         1 FZ9       0.253000
     20 C20         -3.5340    -0.4390     0.5340 ca         1 FZ9      -0.385900
     21 C21         -3.0300    -0.5810     1.8680 cc         1 FZ9       0.385800
     22 N22         -4.0050    -0.9350     2.7180 nd         1 FZ9      -0.526100
     23 N23         -5.1340    -1.0190     1.8910 na         1 FZ9      -0.159100
     24 C24         -4.8620    -0.7340     0.5700 ca         1 FZ9       0.154500
     25 H1          -5.5450    -0.4260    -2.6020 h5         1 FZ9       0.045100
     26 H2          -0.9210     2.1970    -0.5290 h1         1 FZ9       0.059700
     27 H3           0.9360     1.7230     1.0270 hc         1 FZ9       0.057200
     28 H4           2.4570    -1.4280     1.2900 ha         1 FZ9       0.116000
     29 H5           4.4240    -2.3380     2.5590 ha         1 FZ9       0.112000
     30 H6           6.7050    -1.3900     2.1790 ha         1 FZ9       0.112000
     31 H7           7.0340     0.4710     0.5270 ha         1 FZ9       0.113000
     32 H8           5.6620     2.0940    -1.2800 hn         1 FZ9       0.351000
     33 H9           3.1990     2.3660    -2.0750 h4         1 FZ9       0.210000
     34 H10          1.3210    -0.1910    -2.7320 ha         1 FZ9       0.187000
     35 H11         -0.9860    -1.1410    -2.3460 h1         1 FZ9       0.075700
     36 H12         -2.0330    -0.4620     2.2710 h4         1 FZ9       0.044800
     37 H13         -6.0500    -1.2750     2.2590 hn         1 FZ9       0.387000
     38 H14         -1.5610     1.4740     0.9520 h1         1 FZ9       0.059700
     39 H15          0.4360     0.0390     1.1870 hc         1 FZ9       0.057200
     40 H16         -1.1270     0.5580    -2.8180 h1         1 FZ9       0.075700
@<TRIPOS>BOND
     1     1     2 ar  
     2     1    24 ar  
     3     2     3 ar  
     4     2    25 1   
     5     3     4 ar  
     6     4     5 1   
     7     4    20 ar  
     8     5     6 1   
     9     5    19 1   
    10     6     7 1   
    11     6    26 1   
    12     6    38 1   
    13     7     8 1   
    14     7    27 1   
    15     7    39 1   
    16     8     9 1   
    17     8    18 2   
    18     9    10 1   
    19     9    17 2   
    20    10    11 ar  
    21    10    15 ar  
    22    11    12 ar  
    23    11    28 1   
    24    12    13 ar  
    25    12    29 1   
    26    13    14 ar  
    27    13    30 1   
    28    14    15 ar  
    29    14    31 1   
    30    15    16 1   
    31    16    17 1   
    32    16    32 1   
    33    17    33 1   
    34    18    19 1   
    35    18    34 1   
    36    19    35 1   
    37    19    40 1   
    38    20    21 1   
    39    20    24 ar  
    40    21    22 2   
    41    21    36 1   
    42    22    23 1   
    43    23    24 1   
    44    23    37 1   
@<TRIPOS>SUBSTRUCTURE
     1 FZ9         1 TEMP              0 ****  ****    0 ROOT
