@<TRIPOS>MOLECULE
FZA
   48    52     1     0     0
SMALL
abcg2


@<TRIPOS>ATOM
      1 C1           1.4760    36.3760    35.9000 ca         1 FZA      -0.268000
      2 C8           3.0110    31.9040    37.0010 c6         1 FZA       0.483100
      3 C6           0.9210    35.1060    35.7750 ca         1 FZA       0.238100
      4 C5           1.7360    33.9610    35.9100 ca         1 FZA      -0.267600
      5 C4           3.0990    34.1210    36.2440 ca         1 FZA       0.379000
      6 C3           3.6520    35.4040    36.3390 ca         1 FZA      -0.233000
      7 C2           2.8350    36.5010    36.1600 ca         1 FZA      -0.009000
      8 C10          1.2550    32.6120    35.5250 c          1 FZA       0.600600
      9 C14          3.8400    29.5440    36.6070 cc         1 FZA      -0.062400
     10 C12          3.7850    30.6860    37.3450 cd         1 FZA      -0.129300
     11 O11          0.2980    32.4240    34.7870 o          1 FZA      -0.543000
     12 O24         -0.3810    34.9060    35.5440 os         1 FZA      -0.309100
     13 C25         -1.2390    36.0260    35.4350 c3         1 FZA       0.147900
     14 N7           3.8300    32.9840    36.4690 nh         1 FZA      -0.829400
     15 C26          5.2520    33.0520    36.7070 c3         1 FZA       0.213100
     16 N17          4.5650    30.5660    38.4630 na         1 FZA      -0.214700
     17 C18          5.1590    29.3390    38.4600 ca         1 FZA      -0.005200
     18 C20          6.0370    28.7680    39.3850 ca         1 FZA      -0.173000
     19 C21          6.4700    27.4890    39.1170 ca         1 FZA      -0.043000
     20 C22          6.0600    26.7790    37.9730 ca         1 FZA      -0.244000
     21 C23          5.1910    27.3540    37.0620 ca         1 FZA       0.200100
     22 O27          4.7470    26.7650    35.9380 os         1 FZA      -0.334100
     23 C28          5.1890    25.4560    35.6440 c3         1 FZA       0.146900
     24 C19          4.7240    28.6600    37.3030 ca         1 FZA      -0.128800
     25 C15          2.9790    29.3910    35.4000 c6         1 FZA      -0.022200
     26 C16          1.7140    30.2110    35.6180 c6         1 FZA       0.109000
     27 N9           2.0160    31.5860    35.9900 n          1 FZA      -0.425800
     28 H1           0.8740    37.2670    35.8050 ha         1 FZA       0.121000
     29 H2           2.5000    32.2710    37.9070 h2         1 FZA       0.049700
     30 H3           4.6940    35.5470    36.5860 ha         1 FZA       0.118000
     31 H4           3.2580    37.4930    36.2530 ha         1 FZA       0.109000
     32 H5          -2.2360    35.6280    35.2660 h1         1 FZA       0.042700
     33 H6          -1.2480    36.6220    36.3510 h1         1 FZA       0.042700
     34 H7          -0.9690    36.6700    34.5950 h1         1 FZA       0.042700
     35 H8           5.7000    32.0740    36.5570 h1         1 FZA       0.042033
     36 H9           5.7080    33.7210    35.9800 h1         1 FZA       0.042033
     37 H10          5.5130    33.4090    37.7090 h1         1 FZA       0.042033
     38 H11          4.6890    31.2680    39.1750 hn         1 FZA       0.353000
     39 H12          6.3630    29.3030    40.2670 ha         1 FZA       0.117000
     40 H13          7.1510    27.0040    39.8040 ha         1 FZA       0.110000
     41 H14          6.4430    25.7790    37.8240 ha         1 FZA       0.117000
     42 H15          4.7160    25.1720    34.7070 h1         1 FZA       0.041700
     43 H16          6.2740    25.4100    35.5200 h1         1 FZA       0.041700
     44 H17          4.8930    24.7420    36.4170 h1         1 FZA       0.041700
     45 H18          2.6960    28.3520    35.2410 hc         1 FZA       0.066700
     46 H19          3.4910    29.7220    34.4910 hc         1 FZA       0.066700
     47 H20          1.1150    30.2360    34.7120 h1         1 FZA       0.059200
     48 H21          1.1110    29.7350    36.3980 h1         1 FZA       0.059200
@<TRIPOS>BOND
     1     1     3 ar  
     2     1     7 ar  
     3     1    28 1   
     4     2    10 1   
     5     2    14 1   
     6     2    27 1   
     7     2    29 1   
     8     3     4 ar  
     9     3    12 1   
    10     4     5 ar  
    11     4     8 1   
    12     5     6 ar  
    13     5    14 1   
    14     6     7 ar  
    15     6    30 1   
    16     7    31 1   
    17     8    11 2   
    18     8    27 1   
    19     9    10 2   
    20     9    24 1   
    21     9    25 1   
    22    10    16 1   
    23    12    13 1   
    24    13    32 1   
    25    13    33 1   
    26    13    34 1   
    27    14    15 1   
    28    15    35 1   
    29    15    36 1   
    30    15    37 1   
    31    16    17 1   
    32    16    38 1   
    33    17    18 ar  
    34    17    24 ar  
    35    18    19 ar  
    36    18    39 1   
    37    19    20 ar  
    38    19    40 1   
    39    20    21 ar  
    40    20    41 1   
    41    21    22 1   
    42    21    24 ar  
    43    22    23 1   
    44    23    42 1   
    45    23    43 1   
    46    23    44 1   
    47    25    26 1   
    48    25    45 1   
    49    25    46 1   
    50    26    27 1   
    51    26    47 1   
    52    26    48 1   
@<TRIPOS>SUBSTRUCTURE
     1 FZA         1 TEMP              0 ****  ****    0 ROOT
