@<TRIPOS>MOLECULE
FZA
   48    52     1     0     0
SMALL
No Charge or Current Charge


@<TRIPOS>ATOM
      1 C1           1.4320    36.4990    36.0580 ca         1 FZA      -0.268000
      2 C8           2.9390    31.8460    37.1620 c6         1 FZA       0.483100
      3 C6           0.9160    35.2290    35.7120 ca         1 FZA       0.238100
      4 C5           1.6830    34.0690    35.9720 ca         1 FZA      -0.267600
      5 C4           2.9410    34.2050    36.5770 ca         1 FZA       0.379000
      6 C3           3.4450    35.4690    36.9110 ca         1 FZA      -0.233000
      7 C2           2.6940    36.6190    36.6530 ca         1 FZA      -0.009000
      8 C10          1.2330    32.6790    35.5980 c          1 FZA       0.600600
      9 C14          3.8210    29.4600    36.8030 cc         1 FZA      -0.062400
     10 C12          3.8170    30.6510    37.5130 cd         1 FZA      -0.129300
     11 O11          0.2420    32.4600    34.9140 o          1 FZA      -0.543000
     12 O24         -0.3330    35.1100    35.1320 os         1 FZA      -0.309100
     13 C25         -1.1690    36.2420    34.8370 c3         1 FZA       0.147900
     14 N7           3.6980    33.0640    36.8560 nh         1 FZA      -0.829400
     15 C26          5.0700    32.9300    36.3110 c3         1 FZA       0.213100
     16 N17          4.7360    30.5630    38.5870 na         1 FZA      -0.214700
     17 C18          5.3200    29.3150    38.4860 ca         1 FZA      -0.005200
     18 C20          6.3130    28.7690    39.3090 ca         1 FZA      -0.173000
     19 C21          6.7790    27.4710    39.0230 ca         1 FZA      -0.043000
     20 C22          6.2520    26.7490    37.9270 ca         1 FZA      -0.244000
     21 C23          5.2480    27.3230    37.1070 ca         1 FZA       0.200100
     22 O27          4.7030    26.6650    36.0220 os         1 FZA      -0.334100
     23 C28          5.1160    25.3410    35.6440 c3         1 FZA       0.146900
     24 C19          4.8060    28.6180    37.4270 ca         1 FZA      -0.128800
     25 C15          2.9350    29.2590    35.6100 c6         1 FZA      -0.022200
     26 C16          1.7100    30.2000    35.6940 c6         1 FZA       0.109000
     27 N9           2.0530    31.6180    36.0110 n          1 FZA      -0.425800
     28 H1           0.8690    37.4090    35.8730 ha         1 FZA       0.121000
     29 H2           2.2890    32.0710    38.0220 h2         1 FZA       0.049700
     30 H3           4.4180    35.5560    37.3840 ha         1 FZA       0.118000
     31 H4           3.0860    37.6000    36.9170 ha         1 FZA       0.109000
     32 H5          -2.1090    35.9090    34.3800 h1         1 FZA       0.042700
     33 H6          -1.4150    36.7950    35.7530 h1         1 FZA       0.042700
     34 H7          -0.6720    36.9220    34.1340 h1         1 FZA       0.042700
     35 H8           5.1360    32.0770    35.6220 h1         1 FZA       0.042033
     36 H9           5.3580    33.8310    35.7520 h1         1 FZA       0.042033
     37 H10          5.7960    32.7910    37.1230 h1         1 FZA       0.042033
     38 H11          4.9470    31.2850    39.2680 hn         1 FZA       0.353000
     39 H12          6.7160    29.3320    40.1480 ha         1 FZA       0.117000
     40 H13          7.5500    27.0230    39.6470 ha         1 FZA       0.110000
     41 H14          6.6340    25.7510    37.7310 ha         1 FZA       0.117000
     42 H15          4.5600    25.0080    34.7600 h1         1 FZA       0.041700
     43 H16          6.1860    25.3210    35.4010 h1         1 FZA       0.041700
     44 H17          4.9250    24.6270    36.4560 h1         1 FZA       0.041700
     45 H18          2.5910    28.2200    35.5370 hc         1 FZA       0.066700
     46 H19          3.4940    29.4710    34.6880 hc         1 FZA       0.066700
     47 H20          1.1660    30.1470    34.7400 h1         1 FZA       0.059200
     48 H21          1.0300    29.8280    36.4740 h1         1 FZA       0.059200
@<TRIPOS>BOND
     1     1     3 ar  
     2     1     7 ar  
     3     1    28 1   
     4     2    10 1   
     5     2    14 1   
     6     2    27 1   
     7     2    29 1   
     8     3     4 ar  
     9     3    12 1   
    10     4     5 ar  
    11     4     8 1   
    12     5     6 ar  
    13     5    14 1   
    14     6     7 ar  
    15     6    30 1   
    16     7    31 1   
    17     8    11 2   
    18     8    27 1   
    19     9    10 2   
    20     9    24 1   
    21     9    25 1   
    22    10    16 1   
    23    12    13 1   
    24    13    32 1   
    25    13    33 1   
    26    13    34 1   
    27    14    15 1   
    28    15    35 1   
    29    15    36 1   
    30    15    37 1   
    31    16    17 1   
    32    16    38 1   
    33    17    18 ar  
    34    17    24 ar  
    35    18    19 ar  
    36    18    39 1   
    37    19    20 ar  
    38    19    40 1   
    39    20    21 ar  
    40    20    41 1   
    41    21    22 1   
    42    21    24 ar  
    43    22    23 1   
    44    23    42 1   
    45    23    43 1   
    46    23    44 1   
    47    25    26 1   
    48    25    45 1   
    49    25    46 1   
    50    26    27 1   
    51    26    47 1   
    52    26    48 1   
@<TRIPOS>SUBSTRUCTURE
     1 FZA         1 TEMP              0 ****  ****    0 ROOT
