@<TRIPOS>MOLECULE
FZB
   44    47     1     0     0
SMALL
abcg2


@<TRIPOS>ATOM
      1 N1          -0.3330     0.3320    -0.2900 nu         1 FZB      -0.918100
      2 N3           2.4020     1.0600    -0.1730 ns         1 FZB      -0.364100
      3 C4          -4.0150     0.9890    -0.8110 c5         1 FZB       0.161500
      4 C5          -2.5060     1.1700    -0.9670 c6         1 FZB      -0.081400
      5 C6          -1.7470     0.0090    -0.3250 c6         1 FZB       0.225500
      6 C7          -2.3300    -0.3280     1.0510 c6         1 FZB      -0.081400
      7 C8           0.6290    -0.6260    -0.1370 ca         1 FZB       0.583900
      8 C10          2.5530    -2.5740     0.1690 ca         1 FZB      -0.164000
      9 C13          4.7040     0.4810     0.1460 cc         1 FZB      -0.160400
     10 C15          3.6920     1.5120    -0.0930 c          1 FZB       0.556200
     11 O            3.9420     2.7040    -0.2270 o          1 FZB      -0.556000
     12 C14          6.1380     0.9000     0.2640 c3         1 FZB      -0.046900
     13 C12          4.3280    -0.8140     0.2300 cd         1 FZB      -0.110200
     14 C16          2.0000    -0.2470    -0.0610 ca         1 FZB      -0.006400
     15 C11          2.9620    -1.2290     0.1210 ca         1 FZB      -0.065800
     16 C9           1.2190    -2.8440     0.0230 ca         1 FZB       0.348900
     17 N2           0.2800    -1.8960    -0.1130 nb         1 FZB      -0.725000
     18 C1          -3.8560    -0.3650     1.0000 c5         1 FZB       0.161500
     19 C3          -4.4880    -0.3840    -1.3440 c5         1 FZB      -0.109900
     20 C2          -4.3710    -1.3090    -0.1140 c5         1 FZB      -0.109900
     21 N           -4.3240     0.9670     0.6180 n3         1 FZB      -0.694600
     22 C           -5.7320     1.1740     0.8920 c3         1 FZB       0.145100
     23 H1          -0.1390     1.2280     0.1300 hn         1 FZB       0.467000
     24 H3          -4.5300     1.8220    -1.2960 h1         1 FZB       0.065200
     25 H4          -2.2390     1.2470    -2.0240 hc         1 FZB       0.053200
     26 H5          -2.2190     2.1130    -0.4890 hc         1 FZB       0.053200
     27 H6          -1.8480    -0.8690    -0.9670 h1         1 FZB       0.080700
     28 H7          -1.9350    -1.2880     1.3920 hc         1 FZB       0.053200
     29 H8          -2.0220     0.4320     1.7760 hc         1 FZB       0.053200
     30 H9           3.2760    -3.3670     0.3030 ha         1 FZB       0.127000
     31 H10          6.2510     1.9760     0.1670 hc         1 FZB       0.053033
     32 H11          6.5510     0.6050     1.2280 hc         1 FZB       0.053033
     33 H12          6.7460     0.4280    -0.5080 hc         1 FZB       0.053033
     34 H13          5.0790    -1.5810     0.3820 ha         1 FZB       0.190000
     35 H14          0.8590    -3.8660     0.0280 h4         1 FZB       0.021100
     36 H15         -4.2460    -0.6320     1.9850 h1         1 FZB       0.065200
     37 H16         -5.5190    -0.3270    -1.6940 hc         1 FZB       0.049950
     38 H17         -3.8880    -0.7230    -2.1910 hc         1 FZB       0.049950
     39 H18         -3.6980    -2.1520    -0.2790 hc         1 FZB       0.049950
     40 H19         -5.3410    -1.7300     0.1550 hc         1 FZB       0.049950
     41 H21         -5.9080     1.1120     1.9670 h1         1 FZB       0.032033
     42 H22         -6.0240     2.1750     0.5690 h1         1 FZB       0.032033
     43 H23         -6.4100     0.4590     0.4050 h1         1 FZB       0.032033
     44 H2           1.7200     1.7700    -0.4000 hn         1 FZB       0.328500
@<TRIPOS>BOND
     1     1     5 1   
     2     1     7 1   
     3     1    23 1   
     4     2    10 1   
     5     2    14 1   
     6     2    44 1   
     7     3     4 1   
     8     3    19 1   
     9     3    21 1   
    10     3    24 1   
    11     4     5 1   
    12     4    25 1   
    13     4    26 1   
    14     5     6 1   
    15     5    27 1   
    16     6    18 1   
    17     6    28 1   
    18     6    29 1   
    19     7    14 ar  
    20     7    17 ar  
    21     8    15 ar  
    22     8    16 ar  
    23     8    30 1   
    24     9    10 1   
    25     9    12 1   
    26     9    13 2   
    27    10    11 2   
    28    12    31 1   
    29    12    32 1   
    30    12    33 1   
    31    13    15 1   
    32    13    34 1   
    33    14    15 ar  
    34    16    17 ar  
    35    16    35 1   
    36    18    20 1   
    37    18    21 1   
    38    18    36 1   
    39    19    20 1   
    40    19    37 1   
    41    19    38 1   
    42    20    39 1   
    43    20    40 1   
    44    21    22 1   
    45    22    41 1   
    46    22    42 1   
    47    22    43 1   
@<TRIPOS>SUBSTRUCTURE
     1 FZB         1 TEMP              0 ****  ****    0 ROOT
