@<TRIPOS>MOLECULE
FZB
   44    47     1     0     0
SMALL
No Charge or Current Charge


@<TRIPOS>ATOM
      1 N1          -0.3460     0.1980    -0.7680 nu         1 FZB      -0.918100
      2 N3           2.4120     1.0780    -0.0600 ns         1 FZB      -0.364100
      3 C4          -4.1350     0.9000    -0.8800 c5         1 FZB       0.161500
      4 C5          -2.6300     1.0230    -1.2590 c6         1 FZB      -0.081400
      5 C6          -1.7860    -0.1000    -0.6130 c6         1 FZB       0.225500
      6 C7          -2.1580    -0.2430     0.8820 c6         1 FZB      -0.081400
      7 C8           0.6960    -0.6990    -0.5510 ca         1 FZB       0.583900
      8 C10          2.6430    -2.6040    -0.1940 ca         1 FZB      -0.164000
      9 C13          4.7090     0.4890     0.4240 cc         1 FZB      -0.160400
     10 C15          3.6680     1.5490     0.2490 c          1 FZB       0.556200
     11 O            3.8730     2.7480     0.3650 o          1 FZB      -0.556000
     12 C14          6.0980     0.9800     0.7610 c3         1 FZB      -0.046900
     13 C12          4.3750    -0.8470     0.2800 cd         1 FZB      -0.110200
     14 C16          2.0180    -0.2780    -0.2280 ca         1 FZB      -0.006400
     15 C11          3.0070    -1.2570    -0.0490 ca         1 FZB      -0.065800
     16 C9           1.3110    -2.9230    -0.5100 ca         1 FZB       0.348900
     17 N2           0.3490    -1.9900    -0.6890 nb         1 FZB      -0.725000
     18 C1          -3.7000    -0.2620     1.0900 c5         1 FZB       0.161500
     19 C3          -4.7630    -0.5110    -1.1260 c5         1 FZB      -0.109900
     20 C2          -4.4690    -1.2950     0.2030 c5         1 FZB      -0.109900
     21 N           -4.2480     1.0300     0.5970 n3         1 FZB      -0.694600
     22 C           -5.6010     1.3790     1.1020 c3         1 FZB       0.145100
     23 H1          -0.0760     1.1710    -0.8520 hn         1 FZB       0.467000
     24 H3          -4.6870     1.6890    -1.4110 h1         1 FZB       0.065200
     25 H4          -2.5200     0.9860    -2.3510 hc         1 FZB       0.053200
     26 H5          -2.2650     2.0080    -0.9390 hc         1 FZB       0.053200
     27 H6          -2.0370    -1.0390    -1.1300 h1         1 FZB       0.080700
     28 H7          -1.7210    -1.1650     1.2870 hc         1 FZB       0.053200
     29 H8          -1.7300     0.5870     1.4610 hc         1 FZB       0.053200
     30 H9           3.3720    -3.3990    -0.0640 ha         1 FZB       0.127000
     31 H10          6.4840     1.6400    -0.0250 hc         1 FZB       0.053033
     32 H11          6.0990     1.5410     1.7040 hc         1 FZB       0.053033
     33 H12          6.8030     0.1470     0.8700 hc         1 FZB       0.053033
     34 H13          5.1410    -1.6060     0.4140 ha         1 FZB       0.190000
     35 H14          1.0050    -3.9630    -0.6260 h4         1 FZB       0.021100
     36 H15         -3.8990    -0.4190     2.1610 h1         1 FZB       0.065200
     37 H16         -5.8420    -0.4350    -1.3020 hc         1 FZB       0.049950
     38 H17         -4.3370    -1.0040    -2.0070 hc         1 FZB       0.049950
     39 H18         -3.8850    -2.2070     0.0320 hc         1 FZB       0.049950
     40 H19         -5.4020    -1.6080     0.6840 hc         1 FZB       0.049950
     41 H21         -5.5900     1.4610     2.1970 h1         1 FZB       0.032033
     42 H22         -5.9220     2.3470     0.6950 h1         1 FZB       0.032033
     43 H23         -6.3520     0.6280     0.8250 h1         1 FZB       0.032033
     44 H2           1.7010     1.7900    -0.1510 hn         1 FZB       0.328500
@<TRIPOS>BOND
     1     1     5 1   
     2     1     7 1   
     3     1    23 1   
     4     2    10 1   
     5     2    14 1   
     6     2    44 1   
     7     3     4 1   
     8     3    19 1   
     9     3    21 1   
    10     3    24 1   
    11     4     5 1   
    12     4    25 1   
    13     4    26 1   
    14     5     6 1   
    15     5    27 1   
    16     6    18 1   
    17     6    28 1   
    18     6    29 1   
    19     7    14 ar  
    20     7    17 ar  
    21     8    15 ar  
    22     8    16 ar  
    23     8    30 1   
    24     9    10 1   
    25     9    12 1   
    26     9    13 2   
    27    10    11 2   
    28    12    31 1   
    29    12    32 1   
    30    12    33 1   
    31    13    15 1   
    32    13    34 1   
    33    14    15 ar  
    34    16    17 ar  
    35    16    35 1   
    36    18    20 1   
    37    18    21 1   
    38    18    36 1   
    39    19    20 1   
    40    19    37 1   
    41    19    38 1   
    42    20    39 1   
    43    20    40 1   
    44    21    22 1   
    45    22    41 1   
    46    22    42 1   
    47    22    43 1   
@<TRIPOS>SUBSTRUCTURE
     1 FZB         1 TEMP              0 ****  ****    0 ROOT
