@<TRIPOS>MOLECULE
FZC
   59    63     1     0     0
SMALL
abcg2


@<TRIPOS>ATOM
      1 C10         -2.5010    64.0840    34.3560 ca         1 FZC      -0.084000
      2 C15         -2.4820    66.5220    34.8200 cp         1 FZC       0.039000
      3 C17         -4.3160    68.0300    34.2590 ca         1 FZC       0.227100
      4 C20         -7.9460    68.0680    34.1920 c6         1 FZC      -0.077400
      5 C21         -9.0820    67.0520    34.1180 c6         1 FZC      -0.068400
      6 C22         -9.0400    66.2670    32.8110 c6         1 FZC      -0.115400
      7 C26         -3.3660    69.0560    34.1020 ca         1 FZC      -0.258900
      8 C02          1.0690    60.1940    33.6250 ca         1 FZC       0.167300
      9 C03          1.2350    58.8550    33.9660 ca         1 FZC      -0.259000
     10 C04          0.5430    58.4010    35.0710 ca         1 FZC       0.139900
     11 C06         -0.3380    60.4300    35.3740 ca         1 FZC       0.354300
     12 C08         -1.4270    62.4850    35.7590 ca         1 FZC       0.130100
     13 C09         -2.1860    62.7670    34.6330 ca         1 FZC      -0.109000
     14 C11         -2.0880    65.1400    35.1720 cp         1 FZC      -0.033000
     15 C12         -1.3450    64.8100    36.3040 ca         1 FZC       0.139000
     16 C14         -1.0030    63.4970    36.5990 ca         1 FZC      -0.108000
     17 C16         -3.8590    66.7750    34.6170 ca         1 FZC      -0.244000
     18 C19         -6.6110    67.3670    34.0100 c6         1 FZC       0.176300
     19 C23         -7.6910    65.5780    32.6060 c6         1 FZC       0.157500
     20 C25         -6.5620    66.6050    32.6920 c6         1 FZC      -0.103400
     21 C27         -3.4110    70.4390    33.7550 cc         1 FZC       0.384900
     22 C31         -2.0070    68.7750    34.3000 ca         1 FZC      -0.004200
     23 C32         -1.5320    67.5080    34.6580 ca         1 FZC      -0.149000
     24 N05         -0.2560    59.1830    35.7900 nb         1 FZC      -0.182000
     25 N24         -7.5700    64.8390    31.3580 n8         1 FZC      -0.986200
     26 N29         -2.1970    70.9320    33.7460 nd         1 FZC      -0.532100
     27 N30         -1.3600    69.9380    34.0690 na         1 FZC      -0.063400
     28 N33          0.2750    60.9810    34.3480 nb         1 FZC      -0.243000
     29 O07         -1.1470    61.1940    36.1300 os         1 FZC      -0.345400
     30 O18         -5.5960    68.3710    34.0600 os         1 FZC      -0.342100
     31 CL1         -0.8500    66.0270    37.4320 cl         1 FZC      -0.191000
     32 H1          -3.0860    64.3100    33.4730 ha         1 FZC       0.128000
     33 H3          -7.9630    68.5920    35.1500 hc         1 FZC       0.056200
     34 H4         -10.0400    67.5640    34.2240 hc         1 FZC       0.045200
     35 H5          -9.0060    66.3610    34.9630 hc         1 FZC       0.045200
     36 H6          -9.2140    66.9500    31.9700 hc         1 FZC       0.041700
     37 H7          -9.8420    65.5250    32.7880 hc         1 FZC       0.041700
     38 H11          1.4720    61.8330    32.3100 hc         1 FZC       0.060367
     39 H12          2.8510    60.7610    32.5960 hc         1 FZC       0.060367
     40 H13          1.5490    60.2370    31.5440 hc         1 FZC       0.060367
     41 H14          1.8750    58.1990    33.3940 ha         1 FZC       0.138000
     42 H15          0.6270    57.3700    35.3950 h4         1 FZC       0.030100
     43 H16         -2.5270    61.9740    33.9810 ha         1 FZC       0.133000
     44 H17         -0.4270    63.2630    37.4850 ha         1 FZC       0.145000
     45 H18         -4.5480    65.9550    34.7600 ha         1 FZC       0.123000
     46 H19         -6.4780    66.6670    34.8450 h1         1 FZC       0.047700
     47 H20         -7.5510    64.8570    33.4210 h1         1 FZC       0.059700
     48 H21         -5.6030    66.0970    32.5670 hc         1 FZC       0.061200
     49 H22         -6.6650    67.3190    31.8660 hc         1 FZC       0.061200
     50 H23         -0.4760    67.3140    34.7850 ha         1 FZC       0.130000
     51 H24         -8.3070    64.1460    31.3060 hn         1 FZC       0.392500
     52 H25         -7.7390    65.4710    30.5830 hn         1 FZC       0.392500
     53 H26         -0.3700    70.1140    34.1220 hn         1 FZC       0.377000
     54 C28         -4.5960    71.2820    33.4380 c3         1 FZC      -0.098400
     55 H2          -8.0720    68.8200    33.4070 hc         1 FZC       0.056200
     56 C01          1.7700    60.7970    32.4530 c3         1 FZC      -0.155400
     57 H8          -4.2890    72.3070    33.2400 hc         1 FZC       0.050700
     58 H9          -5.1250    70.9100    32.5600 hc         1 FZC       0.050700
     59 H10         -5.3090    71.2920    34.2630 hc         1 FZC       0.050700
@<TRIPOS>BOND
     1     1    13 ar  
     2     1    14 ar  
     3     1    32 1   
     4     2    14 1   
     5     2    17 ar  
     6     2    23 ar  
     7     3     7 ar  
     8     3    17 ar  
     9     3    30 1   
    10     4     5 1   
    11     4    18 1   
    12     4    33 1   
    13     4    55 1   
    14     5     6 1   
    15     5    34 1   
    16     5    35 1   
    17     6    19 1   
    18     6    36 1   
    19     6    37 1   
    20     7    21 1   
    21     7    22 ar  
    22     8     9 ar  
    23     8    28 ar  
    24     8    56 1   
    25     9    10 ar  
    26     9    41 1   
    27    10    24 ar  
    28    10    42 1   
    29    11    24 ar  
    30    11    28 ar  
    31    11    29 1   
    32    12    13 ar  
    33    12    16 ar  
    34    12    29 1   
    35    13    43 1   
    36    14    15 ar  
    37    15    16 ar  
    38    15    31 1   
    39    16    44 1   
    40    17    45 1   
    41    18    20 1   
    42    18    30 1   
    43    18    46 1   
    44    19    20 1   
    45    19    25 1   
    46    19    47 1   
    47    20    48 1   
    48    20    49 1   
    49    21    26 2   
    50    21    54 1   
    51    22    23 ar  
    52    22    27 1   
    53    23    50 1   
    54    25    51 1   
    55    25    52 1   
    56    26    27 1   
    57    27    53 1   
    58    38    56 1   
    59    39    56 1   
    60    40    56 1   
    61    54    57 1   
    62    54    58 1   
    63    54    59 1   
@<TRIPOS>SUBSTRUCTURE
     1 FZC         1 TEMP              0 ****  ****    0 ROOT
