@<TRIPOS>MOLECULE
FZC
   59    63     1     0     0
SMALL
No Charge or Current Charge


@<TRIPOS>ATOM
      1 C10         -2.3560    64.1270    34.5690 ca         1 FZC      -0.084000
      2 C15         -2.4370    66.6100    34.9500 cp         1 FZC       0.039000
      3 C17         -4.3080    68.1230    34.3460 ca         1 FZC       0.227100
      4 C20         -8.0480    68.0290    34.1020 c6         1 FZC      -0.077400
      5 C21         -9.1730    66.9750    33.9480 c6         1 FZC      -0.068400
      6 C22         -9.0050    66.1700    32.6350 c6         1 FZC      -0.115400
      7 C26         -3.3630    69.1400    34.1840 ca         1 FZC      -0.258900
      8 C02          0.9800    60.0230    33.4930 ca         1 FZC       0.167300
      9 C03          0.8430    58.6460    33.7270 ca         1 FZC      -0.259000
     10 C04          0.1700    58.2520    34.8930 ca         1 FZC       0.139900
     11 C06         -0.1610    60.4630    35.4530 ca         1 FZC       0.354300
     12 C08         -1.0820    62.6340    36.0060 ca         1 FZC       0.130100
     13 C09         -1.9250    62.8310    34.8980 ca         1 FZC      -0.109000
     14 C11         -1.9600    65.2490    35.3380 cp         1 FZC      -0.033000
     15 C12         -1.1270    65.0240    36.4700 ca         1 FZC       0.139000
     16 C14         -0.6990    63.7260    36.7970 ca         1 FZC      -0.108000
     17 C16         -3.8270    66.8480    34.7390 ca         1 FZC      -0.244000
     18 C19         -6.6450    67.3760    34.0320 c6         1 FZC       0.176300
     19 C23         -7.6030    65.5190    32.5570 c6         1 FZC       0.157500
     20 C25         -6.4870    66.5820    32.7050 c6         1 FZC      -0.103400
     21 C27         -3.4830    70.5260    33.8000 cc         1 FZC       0.384900
     22 C31         -2.0360    68.9260    34.3710 ca         1 FZC      -0.004200
     23 C32         -1.5260    67.6810    34.7470 ca         1 FZC      -0.149000
     24 N05         -0.3290    59.1570    35.7560 nb         1 FZC      -0.182000
     25 N24         -7.4530    64.7920    31.2850 n8         1 FZC      -0.986200
     26 N29         -2.2840    71.1320    33.7540 nd         1 FZC      -0.532100
     27 N30         -1.3900    70.1150    34.1150 na         1 FZC      -0.063400
     28 N33          0.4850    60.9290    34.3570 nb         1 FZC      -0.243000
     29 O07         -0.6600    61.3720    36.3610 os         1 FZC      -0.345400
     30 O18         -5.6440    68.4090    34.1400 os         1 FZC      -0.342100
     31 Cl1         -0.6360    66.3380    37.5420 cl         1 FZC      -0.191000
     32 H1          -3.0000    64.2700    33.7030 ha         1 FZC       0.128000
     33 H3          -8.1630    68.5540    35.0600 hc         1 FZC       0.056200
     34 H4         -10.1530    67.4710    33.9600 hc         1 FZC       0.045200
     35 H5          -9.1590    66.2900    34.8070 hc         1 FZC       0.045200
     36 H6          -9.1610    66.8390    31.7760 hc         1 FZC       0.041700
     37 H7          -9.7850    65.3980    32.5780 hc         1 FZC       0.041700
     38 H11          1.2040    61.4540    31.8760 hc         1 FZC       0.060367
     39 H12          2.7340    60.8200    32.5080 hc         1 FZC       0.060367
     40 H13          1.7190    59.8120    31.4630 hc         1 FZC       0.060367
     41 H14          1.2440    57.9100    33.0360 ha         1 FZC       0.138000
     42 H15          0.0290    57.2010    35.1410 h4         1 FZC       0.030100
     43 H16         -2.2470    61.9860    34.2950 ha         1 FZC       0.133000
     44 H17         -0.0700    63.5660    37.6670 ha         1 FZC       0.145000
     45 H18         -4.5130    66.0240    34.9000 ha         1 FZC       0.123000
     46 H19         -6.5530    66.6950    34.8900 h1         1 FZC       0.047700
     47 H20         -7.5040    64.7860    33.3740 h1         1 FZC       0.059700
     48 H21         -5.5070    66.0900    32.6690 hc         1 FZC       0.061200
     49 H22         -6.5170    67.2810    31.8570 hc         1 FZC       0.061200
     50 H23         -0.4560    67.5340    34.8740 ha         1 FZC       0.130000
     51 H24         -8.2270    64.1230    31.1960 hn         1 FZC       0.392500
     52 H25         -7.6160    65.4480    30.5130 hn         1 FZC       0.392500
     53 H26         -0.3850    70.2780    34.1690 hn         1 FZC       0.377000
     54 C28         -4.7600    71.2490    33.4770 c3         1 FZC      -0.098400
     55 H2          -8.1430    68.7900    33.3150 hc         1 FZC       0.056200
     56 C01          1.6980    60.5560    32.2680 c3         1 FZC      -0.155400
     57 H8          -4.5710    72.2970    33.2170 hc         1 FZC       0.050700
     58 H9          -5.2670    70.7760    32.6290 hc         1 FZC       0.050700
     59 H10         -5.4400    71.2320    34.3360 hc         1 FZC       0.050700
@<TRIPOS>BOND
     1     1    13 ar  
     2     1    14 ar  
     3     1    32 1   
     4     2    14 1   
     5     2    17 ar  
     6     2    23 ar  
     7     3     7 ar  
     8     3    17 ar  
     9     3    30 1   
    10     4     5 1   
    11     4    18 1   
    12     4    33 1   
    13     4    55 1   
    14     5     6 1   
    15     5    34 1   
    16     5    35 1   
    17     6    19 1   
    18     6    36 1   
    19     6    37 1   
    20     7    21 1   
    21     7    22 ar  
    22     8     9 ar  
    23     8    28 ar  
    24     8    56 1   
    25     9    10 ar  
    26     9    41 1   
    27    10    24 ar  
    28    10    42 1   
    29    11    24 ar  
    30    11    28 ar  
    31    11    29 1   
    32    12    13 ar  
    33    12    16 ar  
    34    12    29 1   
    35    13    43 1   
    36    14    15 ar  
    37    15    16 ar  
    38    15    31 1   
    39    16    44 1   
    40    17    45 1   
    41    18    20 1   
    42    18    30 1   
    43    18    46 1   
    44    19    20 1   
    45    19    25 1   
    46    19    47 1   
    47    20    48 1   
    48    20    49 1   
    49    21    26 2   
    50    21    54 1   
    51    22    23 ar  
    52    22    27 1   
    53    23    50 1   
    54    25    51 1   
    55    25    52 1   
    56    26    27 1   
    57    27    53 1   
    58    38    56 1   
    59    39    56 1   
    60    40    56 1   
    61    54    57 1   
    62    54    58 1   
    63    54    59 1   
@<TRIPOS>SUBSTRUCTURE
     1 FZC         1 TEMP              0 ****  ****    0 ROOT
