@<TRIPOS>MOLECULE
FZE
   75    80     1     0     0
SMALL
No Charge or Current Charge


@<TRIPOS>ATOM
      1 C15         -1.8930     2.1870     0.5550 ca         1 FZE       0.360900
      2 C21          2.1890     2.6910    -0.2750 c6         1 FZE       0.233500
      3 C26          3.7100     4.7480    -0.0000 c5         1 FZE       0.155500
      4 C28          3.7840     4.5770     1.5460 c5         1 FZE      -0.074400
      5 C05         -5.5790     0.4850     2.3860 ca         1 FZE      -0.123300
      6 C06         -6.6300     0.4630     1.4460 ca         1 FZE       0.335900
      7 N08         -6.4410     0.6450     0.1190 nb         1 FZE      -0.661000
      8 C09         -5.1740     0.8520    -0.3130 ca         1 FZE       0.338900
      9 C11         -4.0410     0.8770     0.5410 cp         1 FZE      -0.077000
     10 C12         -4.2680     0.6980     1.9250 ca         1 FZE      -0.069000
     11 C14         -2.6670     1.1290     0.0130 cp         1 FZE      -0.088000
     12 N17         -0.6490     2.5100     0.1430 nb         1 FZE      -0.723000
     13 C18         -0.1210     1.7850    -0.8500 ca         1 FZE       0.593900
     14 N19          1.1680     2.1650    -1.2040 nu         1 FZE      -0.936100
     15 C23          2.4350     4.1710    -0.6640 c6         1 FZE      -0.133400
     16 C31          4.4850     3.1900     1.7330 c5         1 FZE      -0.074400
     17 C34          4.6990     2.6780     0.2730 c5         1 FZE       0.154500
     18 N36          4.8530     3.9450    -0.4680 n7         1 FZE      -0.835400
     19 C38          3.5160     1.8600    -0.3510 c6         1 FZE      -0.095700
     20 C40          3.4330     0.4400     0.3180 c3         1 FZE      -0.062400
     21 C43          2.4570    -0.5780    -0.3190 c3         1 FZE      -0.066400
     22 C46          2.6070    -2.0590     0.1400 c6         1 FZE      -0.063700
     23 C48          2.3720    -2.2350     1.6700 c6         1 FZE      -0.072900
     24 C51          2.4960    -3.7190     2.1040 c6         1 FZE      -0.123900
     25 C54          1.5630    -4.6320     1.2750 c6         1 FZE       0.179000
     26 F55          1.8010    -5.9740     1.6210 f          1 FZE      -0.125500
     27 F56          0.2230    -4.3690     1.6130 f          1 FZE      -0.125500
     28 C57          1.7580    -4.4580    -0.2490 c6         1 FZE      -0.123900
     29 C60          1.6340    -2.9700    -0.6660 c6         1 FZE      -0.072900
     30 C63         -0.7960     0.6960    -1.4690 ca         1 FZE      -0.011400
     31 N64         -0.2150    -0.0960    -2.4990 ns         1 FZE      -0.367100
     32 C66         -0.7570    -1.1970    -3.1150 c          1 FZE       0.555200
     33 O67         -0.1410    -1.7920    -3.9870 o          1 FZE      -0.553000
     34 C68         -2.1120    -1.5760    -2.6210 cc         1 FZE      -0.159400
     35 C69         -2.7250    -2.7990    -3.2620 c3         1 FZE      -0.042900
     36 C73         -2.7260    -0.8320    -1.6270 cd         1 FZE      -0.111200
     37 C75         -2.0840     0.3470    -1.0210 ca         1 FZE      -0.046800
     38 H1          -2.3010     2.8050     1.3540 h4         1 FZE       0.025100
     39 H2           1.8350     2.6590     0.7680 h1         1 FZE       0.088700
     40 H3           3.8070     5.8040    -0.2960 h1         1 FZE       0.073700
     41 H4           4.3820     5.3760     1.9990 hc         1 FZE       0.051200
     42 H5           2.7940     4.6170     2.0150 hc         1 FZE       0.051200
     43 H6          -5.5700    -0.7360     4.1790 hc         1 FZE       0.046700
     44 H7          -5.2780     0.9860     4.4790 hc         1 FZE       0.046700
     45 H8          -6.9120     0.4180     4.1090 hc         1 FZE       0.046700
     46 H9          -7.6580     0.2980     1.7660 h4         1 FZE       0.020100
     47 H10         -5.0560     1.0060    -1.3850 h4         1 FZE       0.023100
     48 H11         -3.4350     0.7170     2.6250 ha         1 FZE       0.122000
     49 H12          1.4860     1.8430    -2.1090 hn         1 FZE       0.474000
     50 H13          2.5280     4.2700    -1.7540 hc         1 FZE       0.052700
     51 H14          1.5640     4.7740    -0.3740 hc         1 FZE       0.052700
     52 H15          5.4480     3.3130     2.2420 hc         1 FZE       0.048700
     53 H16          3.8930     2.5040     2.3470 hc         1 FZE       0.048700
     54 H17          5.6120     2.0680     0.1990 h1         1 FZE       0.071700
     55 H18          4.7790     3.7770    -1.4770 hn         1 FZE       0.406000
     56 H20          3.7640     1.6850    -1.4080 hc         1 FZE       0.041700
     57 H21          4.4330    -0.0110     0.3030 hc         1 FZE       0.041200
     58 H22          1.4350    -0.2610    -0.0920 hc         1 FZE       0.041200
     59 H23          3.6390    -2.3590    -0.0950 hc         1 FZE       0.045700
     60 H24          3.0980    -1.6390     2.2390 hc         1 FZE       0.051700
     61 H25          1.3780    -1.8520     1.9410 hc         1 FZE       0.051700
     62 H26          3.5360    -4.0500     1.9780 hc         1 FZE       0.065950
     63 H27          2.2660    -3.8180     3.1730 hc         1 FZE       0.065950
     64 H28          2.7470    -4.8380    -0.5380 hc         1 FZE       0.065950
     65 H29          1.0200    -5.0630    -0.7940 hc         1 FZE       0.065950
     66 H30          0.5990    -2.6310    -0.5190 hc         1 FZE       0.051700
     67 H31          1.8380    -2.8770    -1.7420 hc         1 FZE       0.051700
     68 H32          0.7120     0.1500    -2.8130 hn         1 FZE       0.326500
     69 H33         -2.8340    -2.6630    -4.3450 hc         1 FZE       0.053367
     70 H34         -2.1000    -3.6850    -3.0930 hc         1 FZE       0.053367
     71 H35         -3.7200    -3.0120    -2.8530 hc         1 FZE       0.053367
     72 H36         -3.6990    -1.1590    -1.2720 ha         1 FZE       0.199000
     73 H19          3.1690     0.5490     1.3760 hc         1 FZE       0.041200
     74 H37          2.5740    -0.5280    -1.4080 hc         1 FZE       0.041200
     75 C01         -5.8510     0.2770     3.8690 c3         1 FZE      -0.043800
@<TRIPOS>BOND
     1     1    11 ar  
     2     1    12 ar  
     3     1    38 1   
     4     2    14 1   
     5     2    15 1   
     6     2    19 1   
     7     2    39 1   
     8     3     4 1   
     9     3    15 1   
    10     3    18 1   
    11     3    40 1   
    12     4    16 1   
    13     4    41 1   
    14     4    42 1   
    15     5     6 ar  
    16     5    10 ar  
    17     5    75 1   
    18     6     7 ar  
    19     6    46 1   
    20     7     8 ar  
    21     8     9 ar  
    22     8    47 1   
    23     9    10 ar  
    24     9    11 1   
    25    10    48 1   
    26    11    37 ar  
    27    12    13 ar  
    28    13    14 1   
    29    13    30 ar  
    30    14    49 1   
    31    15    50 1   
    32    15    51 1   
    33    16    17 1   
    34    16    52 1   
    35    16    53 1   
    36    17    18 1   
    37    17    19 1   
    38    17    54 1   
    39    18    55 1   
    40    19    20 1   
    41    19    56 1   
    42    20    21 1   
    43    20    57 1   
    44    20    73 1   
    45    21    22 1   
    46    21    58 1   
    47    21    74 1   
    48    22    23 1   
    49    22    29 1   
    50    22    59 1   
    51    23    24 1   
    52    23    60 1   
    53    23    61 1   
    54    24    25 1   
    55    24    62 1   
    56    24    63 1   
    57    25    26 1   
    58    25    27 1   
    59    25    28 1   
    60    28    29 1   
    61    28    64 1   
    62    28    65 1   
    63    29    66 1   
    64    29    67 1   
    65    30    31 1   
    66    30    37 ar  
    67    31    32 1   
    68    31    68 1   
    69    32    33 2   
    70    32    34 1   
    71    34    35 1   
    72    34    36 2   
    73    35    69 1   
    74    35    70 1   
    75    35    71 1   
    76    36    37 1   
    77    36    72 1   
    78    43    75 1   
    79    44    75 1   
    80    45    75 1   
@<TRIPOS>SUBSTRUCTURE
     1 FZE         1 TEMP              0 ****  ****    0 ROOT
