@<TRIPOS>MOLECULE
FZE
   75    80     1     0     0
SMALL
abcg2


@<TRIPOS>ATOM
      1 C15         -1.9670     1.9950     0.8050 ca         1 FZE       0.360900
      2 C21          2.0600     2.3200    -0.1750 c6         1 FZE       0.233500
      3 C26          3.2860     4.5350    -0.0450 c5         1 FZE       0.155500
      4 C28          3.3900     4.3960     1.4790 c5         1 FZE      -0.074400
      5 C05         -6.0210     1.1090     2.2250 ca         1 FZE      -0.123300
      6 C06         -6.9360     1.3970     1.2180 ca         1 FZE       0.335900
      7 N08         -6.6000     1.6120    -0.0490 nb         1 FZE      -0.661000
      8 C09         -5.3210     1.5450    -0.3770 ca         1 FZE       0.338900
      9 C11         -4.3050     1.2520     0.5350 cp         1 FZE      -0.077000
     10 C12         -4.6820     1.0360     1.8560 ca         1 FZE      -0.069000
     11 C14         -2.8900     1.2320     0.1270 cp         1 FZE      -0.088000
     12 N17         -0.6800     2.1100     0.4640 nb         1 FZE      -0.723000
     13 C18         -0.2210     1.4440    -0.5740 ca         1 FZE       0.593900
     14 N19          1.0850     1.5640    -0.9350 nu         1 FZE      -0.936100
     15 C23          2.0740     3.7920    -0.6040 c6         1 FZE      -0.133400
     16 C31          4.2270     3.1130     1.6740 c5         1 FZE      -0.074400
     17 C34          4.5180     2.6350     0.2410 c5         1 FZE       0.154500
     18 N36          4.5280     3.9020    -0.4820 n7         1 FZE      -0.835400
     19 C38          3.4460     1.6650    -0.2980 c6         1 FZE      -0.095700
     20 C40          3.5490     0.2980     0.3840 c3         1 FZE      -0.062400
     21 C43          2.8000    -0.8520    -0.2890 c3         1 FZE      -0.066400
     22 C46          3.2760    -2.2380     0.1400 c6         1 FZE      -0.063700
     23 C48          3.1440    -2.4560     1.6470 c6         1 FZE      -0.072900
     24 C51          3.5710    -3.8620     2.0620 c6         1 FZE      -0.123900
     25 C54          2.8240    -4.9130     1.2790 c6         1 FZE       0.179000
     26 F55          3.2680    -6.1650     1.6290 f          1 FZE      -0.125500
     27 F56          1.4970    -4.8960     1.6490 f          1 FZE      -0.125500
     28 C57          2.9270    -4.7280    -0.2160 c6         1 FZE      -0.123900
     29 C60          2.5050    -3.3180    -0.6200 c6         1 FZE      -0.072900
     30 C63         -1.0620     0.5420    -1.2840 ca         1 FZE      -0.011400
     31 N64         -0.5560    -0.2670    -2.2700 ns         1 FZE      -0.367100
     32 C66         -1.2670    -1.1780    -3.0020 c          1 FZE       0.555200
     33 O67         -0.7230    -1.8670    -3.8540 o          1 FZE      -0.553000
     34 C68         -2.6880    -1.2660    -2.6690 cc         1 FZE      -0.159400
     35 C69         -3.5000    -2.2570    -3.4340 c3         1 FZE      -0.042900
     36 C73         -3.1990    -0.4950    -1.6860 cd         1 FZE      -0.111200
     37 C75         -2.4070     0.4500    -0.9520 ca         1 FZE      -0.046800
     38 H1          -2.2810     2.5850     1.6600 h4         1 FZE       0.025100
     39 H2           1.7500     2.2610     0.8720 h1         1 FZE       0.088700
     40 H3           3.2550     5.5820    -0.3590 h1         1 FZE       0.073700
     41 H4           3.8970     5.2600     1.9080 hc         1 FZE       0.051200
     42 H5           2.4070     4.3350     1.9500 hc         1 FZE       0.051200
     43 H6          -6.2640    -0.1570     3.9420 hc         1 FZE       0.046700
     44 H7          -5.9260     1.5230     4.3310 hc         1 FZE       0.046700
     45 H8          -7.5260     1.0580     3.7590 hc         1 FZE       0.046700
     46 H9          -7.9940     1.4610     1.4530 h4         1 FZE       0.020100
     47 H10         -5.0760     1.7490    -1.4150 h4         1 FZE       0.023100
     48 H11         -3.9290     0.8030     2.6000 ha         1 FZE       0.122000
     49 H12          1.3010     1.4760    -1.9160 hn         1 FZE       0.474000
     50 H13          2.1010     3.8500    -1.6980 hc         1 FZE       0.052700
     51 H14          1.1420     4.2670    -0.2860 hc         1 FZE       0.052700
     52 H15          5.1610     3.3360     2.1900 hc         1 FZE       0.048700
     53 H16          3.7100     2.3590     2.2690 hc         1 FZE       0.048700
     54 H17          5.4950     2.1480     0.1700 h1         1 FZE       0.071700
     55 H18          4.5260     3.7510    -1.4860 hn         1 FZE       0.406000
     56 H20          3.6650     1.5220    -1.3670 hc         1 FZE       0.041700
     57 H21          4.6130     0.0320     0.4250 hc         1 FZE       0.041200
     58 H22          1.7290    -0.7780    -0.0880 hc         1 FZE       0.041200
     59 H23          4.3390    -2.3340    -0.1230 hc         1 FZE       0.045700
     60 H24          3.7560    -1.7350     2.1920 hc         1 FZE       0.051700
     61 H25          2.1080    -2.2720     1.9520 hc         1 FZE       0.051700
     62 H26          4.6400    -3.9910     1.8680 hc         1 FZE       0.065950
     63 H27          3.4180    -4.0170     3.1330 hc         1 FZE       0.065950
     64 H28          3.9670    -4.8980    -0.5060 hc         1 FZE       0.065950
     65 H29          2.3220    -5.4810    -0.7270 hc         1 FZE       0.065950
     66 H30          1.4310    -3.1870    -0.4480 hc         1 FZE       0.051700
     67 H31          2.6540    -3.1960    -1.6950 hc         1 FZE       0.051700
     68 H32          0.4390    -0.2560    -2.4500 hn         1 FZE       0.326500
     69 H33         -3.4500    -2.0630    -4.5060 hc         1 FZE       0.053367
     70 H34         -3.1330    -3.2730    -3.2780 hc         1 FZE       0.053367
     71 H35         -4.5450    -2.2230    -3.1290 hc         1 FZE       0.053367
     72 H36         -4.2450    -0.6050    -1.4300 ha         1 FZE       0.199000
     73 H19          3.2270     0.3900     1.4260 hc         1 FZE       0.041200
     74 H37          2.9140    -0.7700    -1.3760 hc         1 FZE       0.041200
     75 C01         -6.4600     0.8730     3.6370 c3         1 FZE      -0.043800
@<TRIPOS>BOND
     1     1    11 ar  
     2     1    12 ar  
     3     1    38 1   
     4     2    14 1   
     5     2    15 1   
     6     2    19 1   
     7     2    39 1   
     8     3     4 1   
     9     3    15 1   
    10     3    18 1   
    11     3    40 1   
    12     4    16 1   
    13     4    41 1   
    14     4    42 1   
    15     5     6 ar  
    16     5    10 ar  
    17     5    75 1   
    18     6     7 ar  
    19     6    46 1   
    20     7     8 ar  
    21     8     9 ar  
    22     8    47 1   
    23     9    10 ar  
    24     9    11 1   
    25    10    48 1   
    26    11    37 ar  
    27    12    13 ar  
    28    13    14 1   
    29    13    30 ar  
    30    14    49 1   
    31    15    50 1   
    32    15    51 1   
    33    16    17 1   
    34    16    52 1   
    35    16    53 1   
    36    17    18 1   
    37    17    19 1   
    38    17    54 1   
    39    18    55 1   
    40    19    20 1   
    41    19    56 1   
    42    20    21 1   
    43    20    57 1   
    44    20    73 1   
    45    21    22 1   
    46    21    58 1   
    47    21    74 1   
    48    22    23 1   
    49    22    29 1   
    50    22    59 1   
    51    23    24 1   
    52    23    60 1   
    53    23    61 1   
    54    24    25 1   
    55    24    62 1   
    56    24    63 1   
    57    25    26 1   
    58    25    27 1   
    59    25    28 1   
    60    28    29 1   
    61    28    64 1   
    62    28    65 1   
    63    29    66 1   
    64    29    67 1   
    65    30    31 1   
    66    30    37 ar  
    67    31    32 1   
    68    31    68 1   
    69    32    33 2   
    70    32    34 1   
    71    34    35 1   
    72    34    36 2   
    73    35    69 1   
    74    35    70 1   
    75    35    71 1   
    76    36    37 1   
    77    36    72 1   
    78    43    75 1   
    79    44    75 1   
    80    45    75 1   
@<TRIPOS>SUBSTRUCTURE
     1 FZE         1 TEMP              0 ****  ****    0 ROOT
