@<TRIPOS>MOLECULE
FZF
   64    68     1     0     0
SMALL
No Charge or Current Charge


@<TRIPOS>ATOM
      1 C15        -34.0960   -18.1750    -8.6870 ca         1 FZF      -0.095000
      2 C20        -36.1100   -22.3380   -11.3640 ca         1 FZF       0.191500
      3 C21        -36.7510   -21.3390   -12.0520 ca         1 FZF      -0.273800
      4 C22        -37.3880   -21.9140   -13.2080 cc         1 FZF      -0.020900
      5 C01        -34.5890   -20.6050    -4.4410 c3         1 FZF       0.149900
      6 C03        -34.3530   -19.3400    -6.5630 ca         1 FZF       0.093100
      7 C04        -34.0600   -18.1330    -5.8830 ca         1 FZF      -0.135000
      8 C05        -33.8190   -16.9380    -6.5980 ca         1 FZF      -0.130600
      9 C06        -33.5140   -15.6540    -5.8500 c          1 FZF       0.621700
     10 C08        -33.2940   -13.1560    -5.8910 c6         1 FZF       0.058500
     11 C09        -33.4910   -11.9170    -6.8030 c6         1 FZF       0.139600
     12 C11        -35.2940   -12.9670    -7.9800 c6         1 FZF       0.139600
     13 C12        -35.1840   -14.2470    -7.1110 c6         1 FZF       0.058500
     14 C14        -33.8050   -16.9840    -8.0080 ca         1 FZF      -0.104000
     15 C16        -34.4030   -19.3530    -7.9810 ca         1 FZF       0.305000
     16 C18        -35.4210   -20.7970    -9.8350 ca         1 FZF       0.448900
     17 C23        -38.1670   -21.2690   -14.2150 cg         1 FZF       0.319700
     18 C25        -37.0950   -23.2700   -13.1660 cd         1 FZF      -0.127100
     19 C27        -36.6990   -20.0260   -11.5640 ca         1 FZF       0.475900
     20 C29        -37.3460   -17.5660   -11.7300 c6         1 FZF       0.236500
     21 C30        -36.0410   -16.8450   -12.1600 c6         1 FZF      -0.090400
     22 C31        -36.0500   -15.3640   -11.7040 c6         1 FZF      -0.071900
     23 C32        -37.2930   -14.6200   -12.2530 c6         1 FZF      -0.079400
     24 C33        -38.6050   -15.3470   -11.8600 c6         1 FZF      -0.071900
     25 C34        -38.5820   -16.8310   -12.3080 c6         1 FZF      -0.090400
     26 N07        -33.8370   -14.4250    -6.4710 n          1 FZF      -0.411800
     27 N17        -34.7290   -20.5390    -8.6650 nu         1 FZF      -0.932900
     28 N19        -35.4310   -22.0820   -10.2320 nb         1 FZF      -0.297000
     29 N24        -38.7990   -20.7050   -15.0180 n1         1 FZF      -0.476000
     30 N26        -36.3010   -23.5390   -12.0220 na         1 FZF      -0.312400
     31 N28        -37.3390   -18.9630   -12.1950 nu         1 FZF      -0.916100
     32 N35        -36.0240   -19.7590   -10.4370 nb         1 FZF      -0.345000
     33 O02        -34.6090   -20.5220    -5.8780 os         1 FZF      -0.351100
     34 O10        -34.8650   -11.8170    -7.2260 os         1 FZF      -0.445000
     35 O13        -32.9180   -15.6810    -4.7790 o          1 FZF      -0.593100
     36 H151       -34.0660   -18.1830    -9.7710 ha         1 FZF       0.137000
     37 H013       -34.8160   -21.6280    -4.1160 h1         1 FZF       0.044033
     38 H011       -33.6010   -20.3350    -4.0480 h1         1 FZF       0.044033
     39 H012       -35.3390   -19.9350    -4.0010 h1         1 FZF       0.044033
     40 H041       -34.0340   -18.1010    -4.7970 ha         1 FZF       0.132000
     41 H082       -32.2200   -13.2760    -5.6900 h1         1 FZF       0.062200
     42 H081       -33.7860   -12.9680    -4.9260 h1         1 FZF       0.062200
     43 H092       -32.8450   -11.9980    -7.6890 h1         1 FZF       0.052700
     44 H091       -33.2120   -11.0030    -6.2600 h1         1 FZF       0.052700
     45 H112       -36.3350   -12.8210    -8.3010 h1         1 FZF       0.052700
     46 H111       -34.6700   -13.0670    -8.8800 h1         1 FZF       0.052700
     47 H121       -35.9390   -14.1910    -6.3150 h1         1 FZF       0.062200
     48 H122       -35.4520   -15.1110    -7.7310 h1         1 FZF       0.062200
     49 H141       -33.5560   -16.0960    -8.5870 ha         1 FZF       0.120000
     50 H251       -37.3920   -24.0530   -13.8610 h4         1 FZF       0.228000
     51 H291       -37.4270   -17.5290   -10.6310 h1         1 FZF       0.082700
     52 H301       -35.9290   -16.8940   -13.2520 hc         1 FZF       0.048700
     53 H302       -35.1670   -17.3530   -11.7360 hc         1 FZF       0.048700
     54 H312       -35.1340   -14.8620   -12.0460 hc         1 FZF       0.041200
     55 H311       -36.0410   -15.3140   -10.6060 hc         1 FZF       0.041200
     56 H322       -37.3090   -13.5900   -11.8720 hc         1 FZF       0.042200
     57 H321       -37.2260   -14.5460   -13.3470 hc         1 FZF       0.042200
     58 H332       -38.7460   -15.2910   -10.7720 hc         1 FZF       0.041200
     59 H331       -39.4650   -14.8340   -12.3130 hc         1 FZF       0.041200
     60 H341       -39.5030   -17.3290   -11.9750 hc         1 FZF       0.048700
     61 H342       -38.5740   -16.8840   -13.4060 hc         1 FZF       0.048700
     62 H171       -34.6170   -21.3730    -8.0890 hn         1 FZF       0.524000
     63 H261       -35.9360   -24.4400   -11.7320 hn         1 FZF       0.367000
     64 H281       -37.8460   -19.1970   -13.0460 hn         1 FZF       0.504000
@<TRIPOS>BOND
     1     1    14 ar  
     2     1    15 ar  
     3     1    36 1   
     4     2     3 ar  
     5     2    28 ar  
     6     2    30 1   
     7     3     4 1   
     8     3    19 ar  
     9     4    17 1   
    10     4    18 2   
    11     5    33 1   
    12     5    37 1   
    13     5    38 1   
    14     5    39 1   
    15     6     7 ar  
    16     6    15 ar  
    17     6    33 1   
    18     7     8 ar  
    19     7    40 1   
    20     8     9 1   
    21     8    14 ar  
    22     9    26 1   
    23     9    35 2   
    24    10    11 1   
    25    10    26 1   
    26    10    41 1   
    27    10    42 1   
    28    11    34 1   
    29    11    43 1   
    30    11    44 1   
    31    12    13 1   
    32    12    34 1   
    33    12    45 1   
    34    12    46 1   
    35    13    26 1   
    36    13    47 1   
    37    13    48 1   
    38    14    49 1   
    39    15    27 1   
    40    16    27 1   
    41    16    28 ar  
    42    16    32 ar  
    43    17    29 3   
    44    18    30 1   
    45    18    50 1   
    46    19    31 1   
    47    19    32 ar  
    48    20    21 1   
    49    20    25 1   
    50    20    31 1   
    51    20    51 1   
    52    21    22 1   
    53    21    52 1   
    54    21    53 1   
    55    22    23 1   
    56    22    54 1   
    57    22    55 1   
    58    23    24 1   
    59    23    56 1   
    60    23    57 1   
    61    24    25 1   
    62    24    58 1   
    63    24    59 1   
    64    25    60 1   
    65    25    61 1   
    66    27    62 1   
    67    30    63 1   
    68    31    64 1   
@<TRIPOS>SUBSTRUCTURE
     1 FZF         1 TEMP              0 ****  ****    0 ROOT
