@<TRIPOS>MOLECULE
FZF
   64    68     1     0     0
SMALL
abcg2


@<TRIPOS>ATOM
      1 C15        -34.0700   -18.1860    -8.8390 ca         1 FZF      -0.095000
      2 C20        -36.1170   -22.2300   -11.3510 ca         1 FZF       0.191500
      3 C21        -36.7600   -21.2380   -12.0880 ca         1 FZF      -0.273800
      4 C22        -37.3810   -21.8940   -13.2030 cc         1 FZF      -0.020900
      5 C01        -34.7710   -20.3820    -4.6500 c3         1 FZF       0.149900
      6 C03        -34.4520   -19.2350    -6.7060 ca         1 FZF       0.093100
      7 C04        -34.1730   -18.0320    -6.0740 ca         1 FZF      -0.135000
      8 C05        -33.8950   -16.8900    -6.8230 ca         1 FZF      -0.130600
      9 C06        -33.5260   -15.6350    -6.1040 c          1 FZF       0.621700
     10 C08        -33.6680   -13.2090    -5.9670 c6         1 FZF       0.058500
     11 C09        -33.6360   -12.1700    -7.0740 c6         1 FZF       0.139600
     12 C11        -35.2670   -13.2980    -8.2910 c6         1 FZF       0.139600
     13 C12        -35.3660   -14.3760    -7.2280 c6         1 FZF       0.058500
     14 C14        -33.8360   -16.9750    -8.2060 ca         1 FZF      -0.104000
     15 C16        -34.4070   -19.3200    -8.1110 ca         1 FZF       0.305000
     16 C18        -35.3680   -20.7920    -9.8520 ca         1 FZF       0.448900
     17 C23        -38.1340   -21.3140   -14.2430 cg         1 FZF       0.319700
     18 C25        -37.0890   -23.2310   -13.0890 cd         1 FZF      -0.127100
     19 C27        -36.6530   -19.9310   -11.5570 ca         1 FZF       0.475900
     20 C29        -37.1750   -17.5240   -11.5700 c6         1 FZF       0.236500
     21 C30        -35.9310   -16.7760   -12.0450 c6         1 FZF      -0.090400
     22 C31        -35.8800   -15.3810   -11.4310 c6         1 FZF      -0.071900
     23 C32        -37.1410   -14.5870   -11.7530 c6         1 FZF      -0.079400
     24 C33        -38.3950   -15.3440   -11.3270 c6         1 FZF      -0.071900
     25 C34        -38.4400   -16.7480   -11.9240 c6         1 FZF      -0.090400
     26 N07        -34.1010   -14.4820    -6.5170 n          1 FZF      -0.411800
     27 N17        -34.6560   -20.5530    -8.7090 nu         1 FZF      -0.932900
     28 N19        -35.4110   -22.0620   -10.2370 nb         1 FZF      -0.297000
     29 N24        -38.7430   -20.8160   -15.0880 n1         1 FZF      -0.476000
     30 N26        -36.3350   -23.4200   -11.9780 na         1 FZF      -0.312400
     31 N28        -37.2520   -18.8700   -12.1110 nu         1 FZF      -0.916100
     32 N35        -35.9470   -19.7500   -10.4450 nb         1 FZF      -0.345000
     33 O02        -34.7610   -20.3770    -6.0640 os         1 FZF      -0.351100
     34 O10        -34.8740   -12.0630    -7.7390 os         1 FZF      -0.445000
     35 O13        -32.6940   -15.6720    -5.2080 o          1 FZF      -0.593100
     36 H151       -33.9850   -18.2490    -9.9130 ha         1 FZF       0.137000
     37 H013       -35.0230   -21.3950    -4.3480 h1         1 FZF       0.044033
     38 H011       -33.7940   -20.1220    -4.2350 h1         1 FZF       0.044033
     39 H012       -35.5210   -19.6970    -4.2460 h1         1 FZF       0.044033
     40 H041       -34.1960   -17.9590    -4.9950 ha         1 FZF       0.132000
     41 H082       -32.6740   -13.3090    -5.5350 h1         1 FZF       0.062200
     42 H081       -34.3490   -12.8940    -5.1680 h1         1 FZF       0.062200
     43 H092       -32.8370   -12.4260    -7.7850 h1         1 FZF       0.052700
     44 H091       -33.4060   -11.1910    -6.6510 h1         1 FZF       0.052700
     45 H112       -36.2400   -13.1540    -8.7620 h1         1 FZF       0.052700
     46 H111       -34.5580   -13.6180    -9.0690 h1         1 FZF       0.052700
     47 H121       -36.1550   -14.1190    -6.5120 h1         1 FZF       0.062200
     48 H122       -35.6410   -15.3220    -7.6880 h1         1 FZF       0.062200
     49 H141       -33.5790   -16.1080    -8.8020 ha         1 FZF       0.120000
     50 H251       -37.3680   -24.0520   -13.7290 h4         1 FZF       0.228000
     51 H291       -37.1220   -17.6170   -10.4820 h1         1 FZF       0.082700
     52 H301       -35.9530   -16.7010   -13.1380 hc         1 FZF       0.048700
     53 H302       -35.0360   -17.3430   -11.7810 hc         1 FZF       0.048700
     54 H312       -34.9930   -14.8480   -11.7800 hc         1 FZF       0.041200
     55 H311       -35.7760   -15.4750   -10.3440 hc         1 FZF       0.041200
     56 H322       -37.1080   -13.6100   -11.2650 hc         1 FZF       0.042200
     57 H321       -37.1810   -14.3970   -12.8310 hc         1 FZF       0.042200
     58 H332       -38.4190   -15.4190   -10.2350 hc         1 FZF       0.041200
     59 H331       -39.2910   -14.7910   -11.6190 hc         1 FZF       0.041200
     60 H341       -39.3180   -17.2870   -11.5600 hc         1 FZF       0.048700
     61 H342       -38.5340   -16.6820   -13.0140 hc         1 FZF       0.048700
     62 H171       -34.3970   -21.3800    -8.1940 hn         1 FZF       0.524000
     63 H261       -35.9820   -24.3120   -11.6640 hn         1 FZF       0.367000
     64 H281       -37.7400   -18.9910   -12.9830 hn         1 FZF       0.504000
@<TRIPOS>BOND
     1     1    14 ar  
     2     1    15 ar  
     3     1    36 1   
     4     2     3 ar  
     5     2    28 ar  
     6     2    30 1   
     7     3     4 1   
     8     3    19 ar  
     9     4    17 1   
    10     4    18 2   
    11     5    33 1   
    12     5    37 1   
    13     5    38 1   
    14     5    39 1   
    15     6     7 ar  
    16     6    15 ar  
    17     6    33 1   
    18     7     8 ar  
    19     7    40 1   
    20     8     9 1   
    21     8    14 ar  
    22     9    26 1   
    23     9    35 2   
    24    10    11 1   
    25    10    26 1   
    26    10    41 1   
    27    10    42 1   
    28    11    34 1   
    29    11    43 1   
    30    11    44 1   
    31    12    13 1   
    32    12    34 1   
    33    12    45 1   
    34    12    46 1   
    35    13    26 1   
    36    13    47 1   
    37    13    48 1   
    38    14    49 1   
    39    15    27 1   
    40    16    27 1   
    41    16    28 ar  
    42    16    32 ar  
    43    17    29 3   
    44    18    30 1   
    45    18    50 1   
    46    19    31 1   
    47    19    32 ar  
    48    20    21 1   
    49    20    25 1   
    50    20    31 1   
    51    20    51 1   
    52    21    22 1   
    53    21    52 1   
    54    21    53 1   
    55    22    23 1   
    56    22    54 1   
    57    22    55 1   
    58    23    24 1   
    59    23    56 1   
    60    23    57 1   
    61    24    25 1   
    62    24    58 1   
    63    24    59 1   
    64    25    60 1   
    65    25    61 1   
    66    27    62 1   
    67    30    63 1   
    68    31    64 1   
@<TRIPOS>SUBSTRUCTURE
     1 FZF         1 TEMP              0 ****  ****    0 ROOT
