@<TRIPOS>MOLECULE
FZH
   76    81     1     0     0
SMALL
abcg2


@<TRIPOS>ATOM
      1 C15          3.3480    -1.1390     1.1810 ca         1 FZH      -0.098000
      2 C17          2.1430    -1.6630     0.7100 ca         1 FZH      -0.143000
      3 C22         -0.4720    -2.6130    -0.2560 c6         1 FZH       0.217500
      4 C24         -0.0010    -4.0410    -0.5610 c6         1 FZH      -0.095400
      5 C05          6.7170     1.1960     2.8000 ca         1 FZH      -0.125300
      6 C06          7.7600     1.1600     1.8810 ca         1 FZH       0.335900
      7 N08          7.6240     0.7580     0.6220 nb         1 FZH      -0.662000
      8 C09          6.4260     0.3740     0.2140 ca         1 FZH       0.340900
      9 C11          5.2960     0.3730     1.0330 cp         1 FZH      -0.085000
     10 C12          5.4650     0.7920     2.3470 ca         1 FZH      -0.068000
     11 C14          3.9880    -0.0990     0.5380 cp         1 FZH      -0.019000
     12 C19          1.5220    -1.1450    -0.4150 ca         1 FZH       0.260000
     13 N20          0.3200    -1.6000    -0.9250 nu         1 FZH      -0.954200
     14 C27         -1.0070    -5.0750    -0.0630 c5         1 FZH       0.149500
     15 C29         -1.3440    -4.8760     1.4310 c5         1 FZH      -0.114400
     16 C32         -2.5360    -3.8950     1.4050 c5         1 FZH      -0.114400
     17 C35         -2.7600    -3.6320    -0.1010 c5         1 FZH       0.148500
     18 N37         -2.2620    -4.8310    -0.7730 n7         1 FZH      -0.827400
     19 C39         -1.9560    -2.4310    -0.6170 c6         1 FZH      -0.050700
     20 C41         -2.4970    -1.0880    -0.1320 c3         1 FZH      -0.071400
     21 C44         -3.9430    -0.8320    -0.5500 c3         1 FZH      -0.070400
     22 C47         -4.3750     0.6300    -0.4600 c6         1 FZH      -0.070700
     23 C49         -5.7820     0.7870    -1.0420 c6         1 FZH      -0.056400
     24 C52         -6.2620     2.2320    -1.0970 c6         1 FZH      -0.296400
     25 S55         -6.3090     2.9420     0.5410 s6         1 FZH       1.075000
     26 O56         -6.5470     4.3840     0.4500 o          1 FZH      -0.519000
     27 O57         -7.2230     2.1450     1.3650 o          1 FZH      -0.519000
     28 C58         -4.6400     2.6350     1.0990 c6         1 FZH      -0.296400
     29 C61         -4.2850     1.1590     0.9730 c6         1 FZH      -0.056400
     30 C64          2.1330    -0.0260    -1.0300 ca         1 FZH       0.054600
     31 N65          1.5000     0.5940    -2.0800 ns         1 FZH      -0.370100
     32 C67          1.9590     1.6770    -2.7750 c          1 FZH       0.556200
     33 O68          1.3050     2.1660    -3.6900 o          1 FZH      -0.559000
     34 C69          3.2450     2.2010    -2.3280 cc         1 FZH      -0.174400
     35 C70          3.7850     3.3920    -3.0500 c3         1 FZH      -0.038900
     36 C74          3.8730     1.6270    -1.2790 cd         1 FZH      -0.104200
     37 C76          3.3570     0.4820    -0.5860 ca         1 FZH      -0.081800
     38 H1           3.8090    -1.5990     2.0460 ha         1 FZH       0.119000
     39 H2           1.7150    -2.5100     1.2290 ha         1 FZH       0.119000
     40 H3          -0.3710    -2.4280     0.8190 h1         1 FZH       0.061700
     41 H4           0.1130    -4.1550    -1.6430 hc         1 FZH       0.052700
     42 H5           0.9810    -4.2220    -0.1180 hc         1 FZH       0.052700
     43 H6           6.2850     2.4940     4.4570 hc         1 FZH       0.046033
     44 H7           6.7020     0.8530     4.9190 hc         1 FZH       0.046033
     45 H8           7.9630     1.9580     4.3770 hc         1 FZH       0.046033
     46 H9           8.7550     1.4700     2.1840 h4         1 FZH       0.019100
     47 H10          6.3480     0.0320    -0.8140 h4         1 FZH       0.025100
     48 H11          4.6140     0.8110     3.0200 ha         1 FZH       0.121000
     49 H12          0.3070    -1.7070    -1.9310 hn         1 FZH       0.460000
     50 H13         -0.6390    -6.0800    -0.2760 h1         1 FZH       0.068700
     51 H14         -1.6330    -5.8280     1.8800 hc         1 FZH       0.049200
     52 H15         -0.4960    -4.5010     2.0080 hc         1 FZH       0.049200
     53 H16         -3.4270    -4.3540     1.8380 hc         1 FZH       0.050700
     54 H17         -2.3480    -2.9840     1.9760 hc         1 FZH       0.050700
     55 H18         -3.8160    -3.4910    -0.3360 h1         1 FZH       0.068700
     56 H19         -2.9010    -5.5960    -0.5830 hn         1 FZH       0.406000
     57 H21         -2.0410    -2.4530    -1.7130 hc         1 FZH       0.063700
     58 H22         -2.3990    -1.0230     0.9570 hc         1 FZH       0.047700
     59 H23         -1.8640    -0.2940    -0.5380 hc         1 FZH       0.047700
     60 H24         -4.0740    -1.1630    -1.5870 hc         1 FZH       0.044200
     61 H25         -4.6270    -1.4410     0.0490 hc         1 FZH       0.044200
     62 H26         -3.6890     1.2230    -1.0810 hc         1 FZH       0.053700
     63 H27         -5.7980     0.4010    -2.0630 hc         1 FZH       0.061700
     64 H28         -6.4950     0.1850    -0.4720 hc         1 FZH       0.061700
     65 H29         -5.5950     2.8570    -1.6940 h1         1 FZH       0.103450
     66 H30         -7.2730     2.3190    -1.4990 h1         1 FZH       0.103450
     67 H31         -3.9840     3.2630     0.4930 h1         1 FZH       0.103450
     68 H32         -4.5940     2.9850     2.1320 h1         1 FZH       0.103450
     69 H33         -4.9260     0.5670     1.6330 hc         1 FZH       0.061700
     70 H34         -3.2670     1.0430     1.3490 hc         1 FZH       0.061700
     71 H35          0.5650     0.2880    -2.3150 hn         1 FZH       0.329500
     72 H36          3.0860     4.2290    -3.0160 hc         1 FZH       0.050367
     73 H37          4.7270     3.7170    -2.6110 hc         1 FZH       0.050367
     74 H38          3.9610     3.1700    -4.1030 hc         1 FZH       0.050367
     75 H39          4.8060     2.0600    -0.9410 ha         1 FZH       0.194000
     76 C01          6.9310     1.6510     4.2110 c3         1 FZH      -0.043800
@<TRIPOS>BOND
     1     1     2 ar  
     2     1    11 ar  
     3     1    38 1   
     4     2    12 ar  
     5     2    39 1   
     6     3     4 1   
     7     3    13 1   
     8     3    19 1   
     9     3    40 1   
    10     4    14 1   
    11     4    41 1   
    12     4    42 1   
    13     5     6 ar  
    14     5    10 ar  
    15     5    76 1   
    16     6     7 ar  
    17     6    46 1   
    18     7     8 ar  
    19     8     9 ar  
    20     8    47 1   
    21     9    10 ar  
    22     9    11 1   
    23    10    48 1   
    24    11    37 ar  
    25    12    13 1   
    26    12    30 ar  
    27    13    49 1   
    28    14    15 1   
    29    14    18 1   
    30    14    50 1   
    31    15    16 1   
    32    15    51 1   
    33    15    52 1   
    34    16    17 1   
    35    16    53 1   
    36    16    54 1   
    37    17    18 1   
    38    17    19 1   
    39    17    55 1   
    40    18    56 1   
    41    19    20 1   
    42    19    57 1   
    43    20    21 1   
    44    20    58 1   
    45    20    59 1   
    46    21    22 1   
    47    21    60 1   
    48    21    61 1   
    49    22    23 1   
    50    22    29 1   
    51    22    62 1   
    52    23    24 1   
    53    23    63 1   
    54    23    64 1   
    55    24    25 1   
    56    24    65 1   
    57    24    66 1   
    58    25    26 2   
    59    25    27 2   
    60    25    28 1   
    61    28    29 1   
    62    28    67 1   
    63    28    68 1   
    64    29    69 1   
    65    29    70 1   
    66    30    31 1   
    67    30    37 ar  
    68    31    32 1   
    69    31    71 1   
    70    32    33 2   
    71    32    34 1   
    72    34    35 1   
    73    34    36 2   
    74    35    72 1   
    75    35    73 1   
    76    35    74 1   
    77    36    37 1   
    78    36    75 1   
    79    43    76 1   
    80    44    76 1   
    81    45    76 1   
@<TRIPOS>SUBSTRUCTURE
     1 FZH         1 TEMP              0 ****  ****    0 ROOT
