@<TRIPOS>MOLECULE
FZH
   76    81     1     0     0
SMALL
No Charge or Current Charge


@<TRIPOS>ATOM
      1 C15          2.6180    -1.0640     1.1390 ca         1 FZH      -0.098000
      2 C17          1.9970    -2.1900     0.5830 ca         1 FZH      -0.143000
      3 C22         -0.3260    -3.8160    -0.6600 c6         1 FZH       0.217500
      4 C24         -0.6370    -5.2020    -1.2770 c6         1 FZH      -0.095400
      5 C05          3.4760     3.0330     2.6740 ca         1 FZH      -0.125300
      6 C06          4.7340     3.4540     2.1950 ca         1 FZH       0.335900
      7 N08          5.3880     2.8350     1.1850 nb         1 FZH      -0.662000
      8 C09          4.7910     1.7620     0.6130 ca         1 FZH       0.340900
      9 C11          3.5260     1.2610     1.0100 cp         1 FZH      -0.085000
     10 C12          2.8690     1.9160     2.0750 ca         1 FZH      -0.068000
     11 C14          2.9070     0.0750     0.3540 cp         1 FZH      -0.019000
     12 C19          1.6410    -2.2070    -0.7740 ca         1 FZH       0.260000
     13 N20          0.9210    -3.3040    -1.2780 nu         1 FZH      -0.954200
     14 C27         -2.0440    -5.7120    -0.8630 c5         1 FZH       0.149500
     15 C29         -2.3330    -5.7040     0.6670 c5         1 FZH      -0.114400
     16 C32         -2.9170    -4.2740     0.9290 c5         1 FZH      -0.114400
     17 C35         -2.8790    -3.5940    -0.4730 c5         1 FZH       0.148500
     18 N37         -3.0400    -4.7530    -1.3750 n7         1 FZH      -0.827400
     19 C39         -1.5480    -2.8440    -0.8300 c6         1 FZH      -0.050700
     20 C41         -1.3670    -1.5180    -0.0120 c3         1 FZH      -0.071400
     21 C44         -2.5560    -0.5270    -0.0080 c3         1 FZH      -0.070400
     22 C47         -2.1930     0.9270     0.4410 c6         1 FZH      -0.070700
     23 C49         -3.4420     1.8490     0.3320 c6         1 FZH      -0.056400
     24 C52         -3.1140     3.3380     0.6230 c6         1 FZH      -0.296400
     25 S55         -2.4580     3.6100     2.2910 s6         1 FZH       1.075000
     26 O56         -1.8870     4.9610     2.3630 o          1 FZH      -0.519000
     27 O57         -3.4630     3.1850     3.2750 o          1 FZH      -0.519000
     28 C58         -1.1060     2.4030     2.2710 c6         1 FZH      -0.296400
     29 C61         -1.5650     0.9750     1.8680 c6         1 FZH      -0.056400
     30 C64          1.9340    -1.0760    -1.5800 ca         1 FZH       0.054600
     31 N65          1.5480    -1.0240    -2.9400 ns         1 FZH      -0.370100
     32 C67          1.7200     0.0080    -3.8250 c          1 FZH       0.556200
     33 O68          1.3390    -0.0880    -4.9820 o          1 FZH      -0.559000
     34 C69          2.3840     1.2100    -3.2460 cc         1 FZH      -0.174400
     35 C70          2.5780     2.3730    -4.1910 c3         1 FZH      -0.038900
     36 C74          2.7650     1.2220    -1.9150 cd         1 FZH      -0.104200
     37 C76          2.5570     0.0640    -1.0250 ca         1 FZH      -0.081800
     38 H1           2.8750    -1.0660     2.1960 ha         1 FZH       0.119000
     39 H2           1.7770    -3.0460     1.2140 ha         1 FZH       0.119000
     40 H3          -0.1640    -3.9720     0.4170 h1         1 FZH       0.061700
     41 H4          -0.5860    -5.1520    -2.3730 hc         1 FZH       0.052700
     42 H5           0.1250    -5.9260    -0.9610 hc         1 FZH       0.052700
     43 H6           1.7500     4.0200     3.5470 hc         1 FZH       0.046033
     44 H7           2.7500     3.1420     4.7160 hc         1 FZH       0.046033
     45 H8           3.2980     4.6980     4.0710 hc         1 FZH       0.046033
     46 H9           5.2370     4.3150     2.6350 h4         1 FZH       0.019100
     47 H10          5.3410     1.2810    -0.1950 h4         1 FZH       0.025100
     48 H11          1.9000     1.5630     2.4200 ha         1 FZH       0.121000
     49 H12          1.0640    -3.5190    -2.2630 hn         1 FZH       0.460000
     50 H13         -2.1890    -6.7140    -1.2950 h1         1 FZH       0.068700
     51 H14         -3.0650    -6.4760     0.9310 hc         1 FZH       0.049200
     52 H15         -1.4330    -5.9070     1.2590 hc         1 FZH       0.049200
     53 H16         -3.9470    -4.3400     1.3000 hc         1 FZH       0.050700
     54 H17         -2.3480    -3.7200     1.6840 hc         1 FZH       0.050700
     55 H18         -3.7190    -2.8950    -0.5970 h1         1 FZH       0.068700
     56 H19         -3.9740    -5.1500    -1.2250 hn         1 FZH       0.406000
     57 H21         -1.6120    -2.5450    -1.8850 hc         1 FZH       0.063700
     58 H22         -1.1050    -1.7610     1.0240 hc         1 FZH       0.047700
     59 H23         -0.5210    -0.9590    -0.4180 hc         1 FZH       0.047700
     60 H24         -2.9720    -0.4910    -1.0220 hc         1 FZH       0.044200
     61 H25         -3.3480    -0.9260     0.6370 hc         1 FZH       0.044200
     62 H26         -1.4410     1.2870    -0.2780 hc         1 FZH       0.053700
     63 H27         -3.8670     1.7730    -0.6790 hc         1 FZH       0.061700
     64 H28         -4.2270     1.4970     1.0170 hc         1 FZH       0.061700
     65 H29         -2.3500     3.7160    -0.0670 h1         1 FZH       0.103450
     66 H30         -4.0100     3.9650     0.5470 h1         1 FZH       0.103450
     67 H31         -0.3650     2.7930     1.5620 h1         1 FZH       0.103450
     68 H32         -0.6780     2.4140     3.2810 h1         1 FZH       0.103450
     69 H33         -2.2810     0.5870     2.6060 hc         1 FZH       0.061700
     70 H34         -0.6880     0.3170     1.9180 hc         1 FZH       0.061700
     71 H35          1.0510    -1.8250    -3.3040 hn         1 FZH       0.329500
     72 H36          1.6150     2.7370    -4.5690 hc         1 FZH       0.050367
     73 H37          3.0800     3.2130    -3.6980 hc         1 FZH       0.050367
     74 H38          3.1910     2.0810    -5.0530 hc         1 FZH       0.050367
     75 H39          3.2140     2.1290    -1.5240 ha         1 FZH       0.194000
     76 C01          2.7820     3.7650     3.8140 c3         1 FZH      -0.043800
@<TRIPOS>BOND
     1     1     2 ar  
     2     1    11 ar  
     3     1    38 1   
     4     2    12 ar  
     5     2    39 1   
     6     3     4 1   
     7     3    13 1   
     8     3    19 1   
     9     3    40 1   
    10     4    14 1   
    11     4    41 1   
    12     4    42 1   
    13     5     6 ar  
    14     5    10 ar  
    15     5    76 1   
    16     6     7 ar  
    17     6    46 1   
    18     7     8 ar  
    19     8     9 ar  
    20     8    47 1   
    21     9    10 ar  
    22     9    11 1   
    23    10    48 1   
    24    11    37 ar  
    25    12    13 1   
    26    12    30 ar  
    27    13    49 1   
    28    14    15 1   
    29    14    18 1   
    30    14    50 1   
    31    15    16 1   
    32    15    51 1   
    33    15    52 1   
    34    16    17 1   
    35    16    53 1   
    36    16    54 1   
    37    17    18 1   
    38    17    19 1   
    39    17    55 1   
    40    18    56 1   
    41    19    20 1   
    42    19    57 1   
    43    20    21 1   
    44    20    58 1   
    45    20    59 1   
    46    21    22 1   
    47    21    60 1   
    48    21    61 1   
    49    22    23 1   
    50    22    29 1   
    51    22    62 1   
    52    23    24 1   
    53    23    63 1   
    54    23    64 1   
    55    24    25 1   
    56    24    65 1   
    57    24    66 1   
    58    25    26 2   
    59    25    27 2   
    60    25    28 1   
    61    28    29 1   
    62    28    67 1   
    63    28    68 1   
    64    29    69 1   
    65    29    70 1   
    66    30    31 1   
    67    30    37 ar  
    68    31    32 1   
    69    31    71 1   
    70    32    33 2   
    71    32    34 1   
    72    34    35 1   
    73    34    36 2   
    74    35    72 1   
    75    35    73 1   
    76    35    74 1   
    77    36    37 1   
    78    36    75 1   
    79    43    76 1   
    80    44    76 1   
    81    45    76 1   
@<TRIPOS>SUBSTRUCTURE
     1 FZH         1 TEMP              0 ****  ****    0 ROOT
