@<TRIPOS>MOLECULE
FZJ
   33    35     1     0     0
SMALL
No Charge or Current Charge


@<TRIPOS>ATOM
      1 C1           5.1580    -0.0140     0.2770 ca         1 FZJ       0.157900
      2 C2           2.9210    -0.4780     0.1290 ca         1 FZJ       0.393900
      3 C3           2.8090     0.4260    -0.9380 ca         1 FZJ      -0.259000
      4 C4           3.9710     1.1040    -1.3370 ca         1 FZJ       0.127900
      5 C5           0.4680    -1.1470     0.3670 cc         1 FZJ       0.020800
      6 C6          -0.2220     0.2060     0.4700 c          1 FZJ       0.555200
      7 C10         -2.5160     1.3120     0.2160 c5         1 FZJ       0.298800
      8 O2           0.3430     1.2530     0.7730 o          1 FZJ      -0.538000
      9 N1           4.0970    -0.7150     0.7320 nb         1 FZJ      -0.260000
     10 N2           5.1540     0.8880    -0.7280 nb         1 FZJ      -0.209000
     11 N3           1.8470    -1.2290     0.5910 nu         1 FZJ      -0.806900
     12 C9          -0.2430    -2.2990     0.0570 cd         1 FZJ      -0.125000
     13 C8          -1.6620    -2.2300    -0.1930 cd         1 FZJ      -0.204000
     14 C7          -2.2650    -0.9960    -0.1110 cc         1 FZJ      -0.032600
     15 C11         -3.6780    -0.6770    -0.3280 c          1 FZJ       0.580200
     16 N5          -3.7940     0.6790    -0.1340 ns         1 FZJ      -0.530900
     17 N4          -1.6010     0.1540     0.1990 n          1 FZJ      -0.283000
     18 C13         -2.1710     2.3610    -0.8630 c3         1 FZJ      -0.113600
     19 C12         -2.6490     1.9520     1.6140 c3         1 FZJ      -0.113600
     20 H1           6.1120    -0.1970     0.7670 h5         1 FZJ       0.045100
     21 H2           1.8650     0.5950    -1.4440 ha         1 FZJ       0.132000
     22 H3           3.9590     1.8230    -2.1550 h4         1 FZJ       0.018100
     23 H4           2.1470    -2.0510     1.1200 hn         1 FZJ       0.517000
     24 H5           0.2700    -3.2550    -0.0100 ha         1 FZJ       0.201000
     25 H6          -2.2380    -3.1200    -0.4440 ha         1 FZJ       0.224000
     26 H7          -4.6940     1.1310    -0.2310 hn         1 FZJ       0.345500
     27 H8          -2.0830     1.8960    -1.8520 hc         1 FZJ       0.061867
     28 H9          -2.9470     3.1330    -0.9260 hc         1 FZJ       0.061867
     29 H10         -1.2230     2.8660    -0.6470 hc         1 FZJ       0.061867
     30 H11         -1.7210     2.4470     1.9230 hc         1 FZJ       0.061867
     31 H12         -3.4430     2.7080     1.6290 hc         1 FZJ       0.061867
     32 H13         -2.8930     1.1980     2.3720 hc         1 FZJ       0.061867
     33 O1          -4.5960    -1.4270    -0.6230 o          1 FZJ      -0.515000
@<TRIPOS>BOND
     1     1     9 ar  
     2     1    10 ar  
     3     1    20 1   
     4     2     3 ar  
     5     2     9 ar  
     6     2    11 1   
     7     3     4 ar  
     8     3    21 1   
     9     4    10 ar  
    10     4    22 1   
    11     5     6 1   
    12     5    11 1   
    13     5    12 2   
    14     6     8 2   
    15     6    17 1   
    16     7    16 1   
    17     7    17 1   
    18     7    18 1   
    19     7    19 1   
    20    11    23 1   
    21    12    13 1   
    22    12    24 1   
    23    13    14 2   
    24    13    25 1   
    25    14    15 1   
    26    14    17 1   
    27    15    16 1   
    28    15    33 2   
    29    16    26 1   
    30    18    27 1   
    31    18    28 1   
    32    18    29 1   
    33    19    30 1   
    34    19    31 1   
    35    19    32 1   
@<TRIPOS>SUBSTRUCTURE
     1 FZJ         1 TEMP              0 ****  ****    0 ROOT
