@<TRIPOS>MOLECULE
FZJ
   33    35     1     0     0
SMALL
abcg2


@<TRIPOS>ATOM
      1 C1           4.9780     0.1410     0.2280 ca         1 FZJ       0.157900
      2 C2           2.7950    -0.4680     0.1870 ca         1 FZJ       0.393900
      3 C3           2.6180     0.3050    -0.9720 ca         1 FZJ      -0.259000
      4 C4           3.7240     0.9740    -1.4340 ca         1 FZJ       0.127900
      5 C5           0.4540    -1.1370     0.4000 cc         1 FZJ       0.020800
      6 C6          -0.2040     0.1570     0.5330 c          1 FZJ       0.555200
      7 C10         -2.4300     1.3090     0.2230 c5         1 FZJ       0.298800
      8 O2           0.3530     1.1790     0.9070 o          1 FZJ      -0.538000
      9 N1           3.9910    -0.5470     0.7730 nb         1 FZJ      -0.260000
     10 N2           4.9220     0.9130    -0.8430 nb         1 FZJ      -0.209000
     11 N3           1.8040    -1.1980     0.7520 nu         1 FZJ      -0.806900
     12 C9          -0.2290    -2.2570     0.0270 cd         1 FZJ      -0.125000
     13 C8          -1.6090    -2.2050    -0.2640 cd         1 FZJ      -0.204000
     14 C7          -2.2050    -0.9950    -0.1800 cc         1 FZJ      -0.032600
     15 C11         -3.6150    -0.6260    -0.4450 c          1 FZJ       0.580200
     16 N5          -3.6710     0.6920    -0.2070 ns         1 FZJ      -0.530900
     17 N4          -1.5390     0.1280     0.1900 n          1 FZJ      -0.283000
     18 C13         -1.9870     2.3680    -0.7770 c3         1 FZJ      -0.113600
     19 C12         -2.5810     1.8650     1.6340 c3         1 FZJ      -0.113600
     20 H1           5.9420     0.0600     0.7210 h5         1 FZJ       0.045100
     21 H2           1.6780     0.3610    -1.5020 ha         1 FZJ       0.132000
     22 H3           3.6510     1.5860    -2.3260 h4         1 FZJ       0.018100
     23 H4           2.0810    -1.8290     1.4890 hn         1 FZJ       0.517000
     24 H5           0.3000    -3.1990    -0.0450 ha         1 FZJ       0.201000
     25 H6          -2.1660    -3.0800    -0.5610 ha         1 FZJ       0.224000
     26 H7          -4.5160     1.2360    -0.3010 hn         1 FZJ       0.345500
     27 H8          -1.8650     1.9360    -1.7690 hc         1 FZJ       0.061867
     28 H9          -2.7480     3.1470    -0.8320 hc         1 FZJ       0.061867
     29 H10         -1.0520     2.8300    -0.4720 hc         1 FZJ       0.061867
     30 H11         -1.6610     2.3310     1.9760 hc         1 FZJ       0.061867
     31 H12         -3.3650     2.6210     1.6350 hc         1 FZJ       0.061867
     32 H13         -2.8630     1.0750     2.3300 hc         1 FZJ       0.061867
     33 O1          -4.5020    -1.3750    -0.8010 o          1 FZJ      -0.515000
@<TRIPOS>BOND
     1     1     9 ar  
     2     1    10 ar  
     3     1    20 1   
     4     2     3 ar  
     5     2     9 ar  
     6     2    11 1   
     7     3     4 ar  
     8     3    21 1   
     9     4    10 ar  
    10     4    22 1   
    11     5     6 1   
    12     5    11 1   
    13     5    12 2   
    14     6     8 2   
    15     6    17 1   
    16     7    16 1   
    17     7    17 1   
    18     7    18 1   
    19     7    19 1   
    20    11    23 1   
    21    12    13 1   
    22    12    24 1   
    23    13    14 2   
    24    13    25 1   
    25    14    15 1   
    26    14    17 1   
    27    15    16 1   
    28    15    33 2   
    29    16    26 1   
    30    18    27 1   
    31    18    28 1   
    32    18    29 1   
    33    19    30 1   
    34    19    31 1   
    35    19    32 1   
@<TRIPOS>SUBSTRUCTURE
     1 FZJ         1 TEMP              0 ****  ****    0 ROOT
