@<TRIPOS>MOLECULE
FZK
   45    46     1     0     0
SMALL
No Charge or Current Charge


@<TRIPOS>ATOM
      1 O2           3.5340    -2.9230    -0.8550 oh         1 FZK      -0.715000
      2 C2           3.1500    -1.9260     0.1030 c5         1 FZK       0.107300
      3 C1           2.5040    -0.6460    -0.5540 c5         1 FZK       0.336700
      4 O4           1.0860    -0.6860    -0.2850 os         1 FZK      -0.424000
      5 C4           0.7550    -2.0560     0.0210 c5         1 FZK       0.166300
      6 C5          -0.6380    -2.1390     0.6920 c3         1 FZK       0.201600
      7 O5          -1.6430    -2.0140    -0.3330 os         1 FZK      -0.551700
      8 C3           1.9510    -2.4920     0.9250 c5         1 FZK       0.094300
      9 O3           2.0730    -3.9220     1.0830 oh         1 FZK      -0.712000
     10 N1           3.1850     0.5580     0.0050 n          1 FZK      -0.309000
     11 C6           4.1910     1.1590    -0.7570 cc         1 FZK       0.020600
     12 C9           4.7950     2.3030    -0.2920 cd         1 FZK      -0.374200
     13 C8           4.4180     2.9140     0.9830 c          1 FZK       0.595200
     14 O7           4.9220     3.9290     1.4300 o          1 FZK      -0.532000
     15 N3           3.4440     2.2330     1.6380 ns         1 FZK      -0.457500
     16 C7           2.8010     1.0970     1.2570 c          1 FZK       0.635000
     17 O6           1.9770     0.5970     2.0040 o          1 FZK      -0.597000
     18 C           -3.3940     0.6100    -0.5860 c          1 FZK       0.638100
     19 CA          -3.6060     2.0720    -0.0550 c3         1 FZK       0.085500
     20 CB          -4.8680     2.7030    -0.7090 c3         1 FZK       0.122600
     21 N           -2.4200     3.0010    -0.1710 n8         1 FZK      -1.000200
     22 N3S         -3.3780    -0.3550     0.3720 ns         1 FZK      -0.620300
     23 O           -3.2530     0.3640    -1.7760 o          1 FZK      -0.516100
     24 O1S         -4.0610    -2.4140    -0.9540 o          1 FZK      -0.539500
     25 O2S         -3.3150    -2.6170     1.4810 o          1 FZK      -0.539500
     26 OG          -5.0690     4.0440    -0.2220 oh         1 FZK      -0.662000
     27 S           -3.2090    -1.9900     0.1610 s6         1 FZK       1.443500
     28 H1           3.1790    -3.7550    -0.4410 ho         1 FZK       0.532000
     29 H2           3.9960    -1.6730     0.7580 h1         1 FZK       0.074700
     30 H3           2.6740    -0.6480    -1.6380 h2         1 FZK       0.092700
     31 H4           0.7340    -2.6410    -0.9100 h1         1 FZK       0.094700
     32 H5          -0.7240    -3.1070     1.2040 h1         1 FZK       0.069200
     33 H6          -0.7200    -1.3410     1.4440 h1         1 FZK       0.069200
     34 H7           1.8900    -1.9930     1.9040 h1         1 FZK       0.081700
     35 H8           1.8540    -4.1450     2.0210 ho         1 FZK       0.521000
     36 H9           4.4170     0.6510    -1.6920 h4         1 FZK       0.209000
     37 H10          5.5770     2.8160    -0.8400 ha         1 FZK       0.223000
     38 H11          3.1650     2.6130     2.5270 hn         1 FZK       0.339500
     39 H12         -3.8330     1.9780     1.0170 h1         1 FZK       0.084700
     40 H13         -4.7440     2.7140    -1.8000 h1         1 FZK       0.035700
     41 H14         -5.7420     2.0780    -0.4800 h1         1 FZK       0.035700
     42 H15         -2.1480     3.0730    -1.1600 hn         1 FZK       0.419000
     43 H16         -2.7670     3.9480     0.0340 hn         1 FZK       0.419000
     44 H18         -3.4670    -0.1150     1.3430 hn         1 FZK       0.348500
     45 H19         -5.8810     4.3930    -0.6550 ho         1 FZK       0.454000
@<TRIPOS>BOND
     1     1     2 1   
     2     1    28 1   
     3     2     3 1   
     4     2     8 1   
     5     2    29 1   
     6     3     4 1   
     7     3    10 1   
     8     3    30 1   
     9     4     5 1   
    10     5     6 1   
    11     5     8 1   
    12     5    31 1   
    13     6     7 1   
    14     6    32 1   
    15     6    33 1   
    16     7    27 1   
    17     8     9 1   
    18     8    34 1   
    19     9    35 1   
    20    10    11 1   
    21    10    16 1   
    22    11    12 2   
    23    11    36 1   
    24    12    13 1   
    25    12    37 1   
    26    13    14 2   
    27    13    15 1   
    28    15    16 1   
    29    15    38 1   
    30    16    17 2   
    31    18    19 1   
    32    18    22 1   
    33    18    23 2   
    34    19    20 1   
    35    19    21 1   
    36    19    39 1   
    37    20    26 1   
    38    20    40 1   
    39    20    41 1   
    40    21    42 1   
    41    21    43 1   
    42    22    27 1   
    43    22    44 1   
    44    24    27 2   
    45    25    27 2   
    46    26    45 1   
@<TRIPOS>SUBSTRUCTURE
     1 FZK         1 TEMP              0 ****  ****    0 ROOT
