@<TRIPOS>MOLECULE
FZK
   45    46     1     0     0
SMALL
abcg2


@<TRIPOS>ATOM
      1 O2           3.6270    -2.5230    -0.5790 oh         1 FZK      -0.715000
      2 C2           2.8260    -1.7800     0.3010 c5         1 FZK       0.107300
      3 C1           2.0200    -0.7740    -0.5410 c5         1 FZK       0.336700
      4 O4           0.7040    -1.2370    -0.6230 os         1 FZK      -0.424000
      5 C4           0.5710    -2.5140    -0.0350 c5         1 FZK       0.166300
      6 C5          -0.7480    -2.6070     0.6830 c3         1 FZK       0.201600
      7 O5          -1.8010    -2.5130    -0.3020 os         1 FZK      -0.551700
      8 C3           1.7450    -2.6770     0.9320 c5         1 FZK       0.094300
      9 O3           2.1250    -4.0260     0.9940 oh         1 FZK      -0.712000
     10 N1           2.0410     0.6060    -0.0710 n          1 FZK      -0.309000
     11 C6           2.5770     1.5750    -0.8720 cc         1 FZK       0.020600
     12 C9           2.6590     2.8660    -0.5190 cd         1 FZK      -0.374200
     13 C8           2.1400     3.2840     0.7580 c          1 FZK       0.595200
     14 O7           2.1250     4.4250     1.1860 o          1 FZK      -0.532000
     15 N3           1.6420     2.2410     1.5190 ns         1 FZK      -0.457500
     16 C7           1.5260     0.9250     1.1660 c          1 FZK       0.635000
     17 O6           1.0350     0.1010     1.9110 o          1 FZK      -0.597000
     18 C           -2.1350     0.6130    -0.5360 c          1 FZK       0.638100
     19 CA          -1.8900     2.0200    -0.0270 c3         1 FZK       0.085500
     20 CB          -3.1720     2.8290    -0.2680 c3         1 FZK       0.122600
     21 N           -0.7000     2.5470    -0.6500 n8         1 FZK      -1.000200
     22 N3S         -2.6790    -0.2340     0.4080 ns         1 FZK      -0.620300
     23 O           -1.9300     0.2660    -1.6710 o          1 FZK      -0.516100
     24 O1S         -3.9670    -1.8660    -1.0810 o          1 FZK      -0.539500
     25 O2S         -3.6300    -2.2920     1.3680 o          1 FZK      -0.539500
     26 OG          -2.9790     4.1020     0.2970 oh         1 FZK      -0.662000
     27 S           -3.1530    -1.7990     0.1000 s6         1 FZK       1.443500
     28 H1           3.6150    -3.4380    -0.2660 ho         1 FZK       0.532000
     29 H2           3.4370    -1.2760     1.0580 h1         1 FZK       0.074700
     30 H3           2.4690    -0.7320    -1.5370 h2         1 FZK       0.092700
     31 H4           0.6330    -3.2930    -0.8070 h1         1 FZK       0.094700
     32 H5          -0.8330    -3.5660     1.1950 h1         1 FZK       0.069200
     33 H6          -0.8250    -1.8020     1.4160 h1         1 FZK       0.069200
     34 H7           1.4860    -2.2950     1.9210 h1         1 FZK       0.081700
     35 H8           2.4970    -4.2070     1.8620 ho         1 FZK       0.521000
     36 H9           2.9460     1.2320    -1.8280 h4         1 FZK       0.209000
     37 H10          3.0890     3.5930    -1.1900 ha         1 FZK       0.223000
     38 H11          1.2620     2.4790     2.4270 hn         1 FZK       0.339500
     39 H12         -1.7220     1.9820     1.0550 h1         1 FZK       0.084700
     40 H13         -3.3560     2.8840    -1.3480 h1         1 FZK       0.035700
     41 H14         -4.0300     2.3140     0.1840 h1         1 FZK       0.035700
     42 H15         -0.7860     2.5210    -1.6580 hn         1 FZK       0.419000
     43 H16         -0.6000     3.5210    -0.3960 hn         1 FZK       0.419000
     44 H18         -2.8200     0.0840     1.3600 hn         1 FZK       0.348500
     45 H19         -3.6490     4.6940    -0.0540 ho         1 FZK       0.454000
@<TRIPOS>BOND
     1     1     2 1   
     2     1    28 1   
     3     2     3 1   
     4     2     8 1   
     5     2    29 1   
     6     3     4 1   
     7     3    10 1   
     8     3    30 1   
     9     4     5 1   
    10     5     6 1   
    11     5     8 1   
    12     5    31 1   
    13     6     7 1   
    14     6    32 1   
    15     6    33 1   
    16     7    27 1   
    17     8     9 1   
    18     8    34 1   
    19     9    35 1   
    20    10    11 1   
    21    10    16 1   
    22    11    12 2   
    23    11    36 1   
    24    12    13 1   
    25    12    37 1   
    26    13    14 2   
    27    13    15 1   
    28    15    16 1   
    29    15    38 1   
    30    16    17 2   
    31    18    19 1   
    32    18    22 1   
    33    18    23 2   
    34    19    20 1   
    35    19    21 1   
    36    19    39 1   
    37    20    26 1   
    38    20    40 1   
    39    20    41 1   
    40    21    42 1   
    41    21    43 1   
    42    22    27 1   
    43    22    44 1   
    44    24    27 2   
    45    25    27 2   
    46    26    45 1   
@<TRIPOS>SUBSTRUCTURE
     1 FZK         1 TEMP              0 ****  ****    0 ROOT
