@<TRIPOS>MOLECULE
FZL
   60    64     1     0     0
SMALL
abcg2


@<TRIPOS>ATOM
      1 C10         -2.0930    40.9190     7.5240 c5         1 FZL       0.096000
      2 C12         -1.0430    38.4810     8.6320 ca         1 FZL      -0.182000
      3 C14         -0.3280    36.1940     8.3000 ca         1 FZL       0.259000
      4 C16          0.6780    34.5840     9.8790 ca         1 FZL       0.451900
      5 C19          2.0910    33.9780    12.0650 ca         1 FZL      -0.278800
      6 C20          2.7120    33.2450    13.1330 cc         1 FZL      -0.020900
      7 C27          2.5460    37.7140    11.8140 c6         1 FZL       0.236500
      8 C31          3.7700    39.9070    11.8020 c6         1 FZL      -0.071400
      9 C32          3.8080    38.4490    12.2510 c6         1 FZL      -0.089900
     10 C18          1.4270    33.0420    11.2760 ca         1 FZL       0.194500
     11 C23          2.4000    31.9220    12.9400 cd         1 FZL      -0.130100
     12 C25          1.9970    35.3170    11.6180 ca         1 FZL       0.475900
     13 C28          1.2970    38.4160    12.3450 c6         1 FZL      -0.089900
     14 C03         -0.1940    36.4610     6.9280 ca         1 FZL       0.134100
     15 C04         -0.4920    37.7190     6.4190 ca         1 FZL      -0.198000
     16 C05         -0.9000    38.7460     7.2740 ca         1 FZL       0.005000
     17 C07         -0.6030    40.6470     5.7300 c          1 FZL       0.568000
     18 C08         -1.1490    42.0540     5.6510 c5         1 FZL      -0.169400
     19 C09         -2.4040    42.0150     6.5100 c5         1 FZL      -0.092400
     20 C13         -0.7760    37.2140     9.1250 ca         1 FZL      -0.058000
     21 C21          3.4870    33.7490    14.1960 cg         1 FZL       0.321700
     22 C29          1.2540    39.8690    11.8860 c6         1 FZL      -0.071400
     23 C30          2.5160    40.6180    12.3010 c6         1 FZL      -0.077400
     24 N06         -1.2100    40.0230     6.7840 n          1 FZL      -0.232400
     25 N17          0.7110    33.2900    10.1840 nb         1 FZL      -0.306000
     26 N22          4.1160    34.1850    15.0610 n1         1 FZL      -0.480000
     27 N24          1.6330    31.8120    11.8260 na         1 FZL      -0.315400
     28 N33          1.2830    35.5800    10.5290 nb         1 FZL      -0.341000
     29 O02          0.2140    35.4270     6.1690 os         1 FZL      -0.347100
     30 O11          0.2460    40.1670     5.0050 o          1 FZL      -0.531000
     31 H1          -1.5840    41.3230     8.4040 h1         1 FZL       0.052700
     32 H2          -2.9810    40.3860     7.8620 h1         1 FZL       0.052700
     33 H3          -1.3690    39.2470     9.3220 ha         1 FZL       0.115000
     34 H4           3.1000    36.1360    13.1000 hn         1 FZL       0.501000
     35 H5           2.5030    37.7190    10.7210 h1         1 FZL       0.086700
     36 H6           4.6660    40.4230    12.1540 hc         1 FZL       0.042450
     37 H7           3.8000    39.9470    10.7080 hc         1 FZL       0.042450
     38 H8           3.8930    38.4040    13.3430 hc         1 FZL       0.046700
     39 H9           4.6880    37.9480    11.8420 hc         1 FZL       0.046700
     40 H10          2.6740    31.0610    13.5250 h4         1 FZL       0.226000
     41 H11          0.4050    37.8820    12.0090 hc         1 FZL       0.046700
     42 H12          1.3020    38.3710    13.4390 hc         1 FZL       0.046700
     43 H13          0.7040    34.6670     4.3720 h1         1 FZL       0.044367
     44 H14         -0.5830    35.8850     4.2980 h1         1 FZL       0.044367
     45 H15          1.1050    36.3850     4.5480 h1         1 FZL       0.044367
     46 H16         -0.4070    37.9060     5.3610 ha         1 FZL       0.143000
     47 H17         -0.3970    42.7310     6.0670 hc         1 FZL       0.079200
     48 H18         -1.3170    42.3500     4.6170 hc         1 FZL       0.079200
     49 H19         -2.6300    42.9630     6.9920 hc         1 FZL       0.060200
     50 H20         -3.2670    41.7290     5.9070 hc         1 FZL       0.060200
     51 H21         -0.9130    37.0230    10.1790 ha         1 FZL       0.130000
     52 H22          1.1530    39.9010    10.7950 hc         1 FZL       0.042450
     53 H23          0.3680    40.3620    12.2920 hc         1 FZL       0.042450
     54 H24          2.5510    40.6900    13.3930 hc         1 FZL       0.039700
     55 H25          2.4900    41.6430    11.9220 hc         1 FZL       0.039700
     56 H26         -0.3670    34.1240     8.2250 hn         1 FZL       0.521000
     57 H27          1.2640    30.9470    11.4630 hn         1 FZL       0.365000
     58 N15         -0.0540    34.9070     8.7760 nu         1 FZL      -0.931900
     59 N26          2.6180    36.3270    12.2360 nu         1 FZL      -0.916100
     60 C01          0.3620    35.6170     4.7770 c3         1 FZL       0.147900
@<TRIPOS>BOND
     1     1    19 1   
     2     1    24 1   
     3     1    31 1   
     4     1    32 1   
     5     2    16 ar  
     6     2    20 ar  
     7     2    33 1   
     8     3    14 ar  
     9     3    20 ar  
    10     3    58 1   
    11     4    25 ar  
    12     4    28 ar  
    13     4    58 1   
    14     5     6 1   
    15     5    10 ar  
    16     5    12 ar  
    17     6    11 2   
    18     6    21 1   
    19     7     9 1   
    20     7    13 1   
    21     7    35 1   
    22     7    59 1   
    23     8     9 1   
    24     8    23 1   
    25     8    36 1   
    26     8    37 1   
    27     9    38 1   
    28     9    39 1   
    29    10    25 ar  
    30    10    27 1   
    31    11    27 1   
    32    11    40 1   
    33    12    28 ar  
    34    12    59 1   
    35    13    22 1   
    36    13    41 1   
    37    13    42 1   
    38    14    15 ar  
    39    14    29 1   
    40    15    16 ar  
    41    15    46 1   
    42    16    24 1   
    43    17    18 1   
    44    17    24 1   
    45    17    30 2   
    46    18    19 1   
    47    18    47 1   
    48    18    48 1   
    49    19    49 1   
    50    19    50 1   
    51    20    51 1   
    52    21    26 3   
    53    22    23 1   
    54    22    52 1   
    55    22    53 1   
    56    23    54 1   
    57    23    55 1   
    58    27    57 1   
    59    29    60 1   
    60    34    59 1   
    61    43    60 1   
    62    44    60 1   
    63    45    60 1   
    64    56    58 1   
@<TRIPOS>SUBSTRUCTURE
     1 FZL         1 TEMP              0 ****  ****    0 ROOT
