@<TRIPOS>MOLECULE
FZL
   60    64     1     0     0
SMALL
No Charge or Current Charge


@<TRIPOS>ATOM
      1 C10         -1.9040    41.2210     6.9630 c5         1 FZL       0.096000
      2 C12         -0.6070    38.8190     8.2130 ca         1 FZL      -0.182000
      3 C14         -0.1830    36.4110     8.1120 ca         1 FZL       0.259000
      4 C16          0.9030    34.8020     9.8240 ca         1 FZL       0.451900
      5 C19          2.3050    33.9700    11.9040 ca         1 FZL      -0.278800
      6 C20          2.9680    33.2480    12.9600 cc         1 FZL      -0.020900
      7 C27          2.7430    37.7510    12.2210 c6         1 FZL       0.236500
      8 C31          3.7640    40.0110    12.8410 c6         1 FZL      -0.071400
      9 C32          3.9440    38.4720    12.8820 c6         1 FZL      -0.089900
     10 C18          1.6210    33.0730    11.1240 ca         1 FZL       0.194500
     11 C23          2.6470    31.9120    12.7620 cd         1 FZL      -0.130100
     12 C25          2.2600    35.3330    11.5820 ca         1 FZL       0.475900
     13 C28          1.4140    38.1710    12.9050 c6         1 FZL      -0.089900
     14 C03         -0.5270    36.4350     6.7350 ca         1 FZL       0.134100
     15 C04         -0.8970    37.6520     6.1160 ca         1 FZL      -0.198000
     16 C05         -0.9950    38.8480     6.8590 ca         1 FZL       0.005000
     17 C07         -0.8830    40.4900     4.9080 c          1 FZL       0.568000
     18 C08         -1.2450    41.9700     4.8010 c5         1 FZL      -0.169400
     19 C09         -2.4200    42.1150     5.7960 c5         1 FZL      -0.092400
     20 C13         -0.2350    37.6180     8.8380 ca         1 FZL      -0.058000
     21 C21          3.7900    33.7520    14.0110 cg         1 FZL       0.321700
     22 C29          1.2250    39.7080    12.8620 c6         1 FZL      -0.071400
     23 C30          2.4310    40.4370    13.5040 c6         1 FZL      -0.077400
     24 N06         -1.2090    40.1340     6.2340 n          1 FZL      -0.232400
     25 N17          0.9070    33.4770    10.0610 nb         1 FZL      -0.306000
     26 N22          4.4560    34.2030    14.8570 n1         1 FZL      -0.480000
     27 N24          1.8120    31.7980    11.6230 na         1 FZL      -0.315400
     28 N33          1.5520    35.7490    10.5210 nb         1 FZL      -0.341000
     29 O02         -0.4800    35.2410     6.0250 os         1 FZL      -0.347100
     30 O11         -0.5480    39.7350     4.0040 o          1 FZL      -0.531000
     31 H1          -1.1980    41.7670     7.6040 h1         1 FZL       0.052700
     32 H2          -2.7250    40.8440     7.5870 h1         1 FZL       0.052700
     33 H3          -0.5960    39.7330     8.8010 ha         1 FZL       0.115000
     34 H4           3.4530    35.9380    13.1250 hn         1 FZL       0.501000
     35 H5           2.7110    38.0580    11.1620 h1         1 FZL       0.086700
     36 H6           4.6070    40.4990    13.3510 hc         1 FZL       0.042450
     37 H7           3.7870    40.3590    11.7990 hc         1 FZL       0.042450
     38 H8           4.0530    38.1450    13.9260 hc         1 FZL       0.046700
     39 H9           4.8750    38.1970    12.3680 hc         1 FZL       0.046700
     40 H10          2.9510    31.0450    13.3460 h4         1 FZL       0.226000
     41 H11          0.5620    37.6840    12.4120 hc         1 FZL       0.046700
     42 H12          1.4060    37.8290    13.9490 hc         1 FZL       0.046700
     43 H13         -0.6860    34.1240     4.2700 h1         1 FZL       0.044367
     44 H14         -1.8250    35.4760     4.4320 h1         1 FZL       0.044367
     45 H15         -0.1140    35.7880     4.0330 h1         1 FZL       0.044367
     46 H16         -1.1570    37.6590     5.0650 ha         1 FZL       0.143000
     47 H17         -0.3950    42.5510     5.1780 hc         1 FZL       0.079200
     48 H18         -1.4550    42.2630     3.7670 hc         1 FZL       0.079200
     49 H19         -2.6070    43.1510     6.1020 hc         1 FZL       0.060200
     50 H20         -3.3510    41.7160     5.3740 hc         1 FZL       0.060200
     51 H21          0.0050    37.6390     9.8950 ha         1 FZL       0.130000
     52 H22          1.1050    40.0370    11.8200 hc         1 FZL       0.042450
     53 H23          0.2990    39.9850    13.3850 hc         1 FZL       0.042450
     54 H24          2.4660    40.2160    14.5800 hc         1 FZL       0.039700
     55 H25          2.3000    41.5250    13.4140 hc         1 FZL       0.039700
     56 H26         -0.0470    34.3840     8.1150 hn         1 FZL       0.521000
     57 H27          1.4200    30.9450    11.2370 hn         1 FZL       0.365000
     58 N15          0.1780    35.1830     8.7080 nu         1 FZL      -0.931900
     59 N26          2.9310    36.2950    12.3280 nu         1 FZL      -0.916100
     60 C01         -0.7920    35.1580     4.6220 c3         1 FZL       0.147900
@<TRIPOS>BOND
     1     1    19 1   
     2     1    24 1   
     3     1    31 1   
     4     1    32 1   
     5     2    16 ar  
     6     2    20 ar  
     7     2    33 1   
     8     3    14 ar  
     9     3    20 ar  
    10     3    58 1   
    11     4    25 ar  
    12     4    28 ar  
    13     4    58 1   
    14     5     6 1   
    15     5    10 ar  
    16     5    12 ar  
    17     6    11 2   
    18     6    21 1   
    19     7     9 1   
    20     7    13 1   
    21     7    35 1   
    22     7    59 1   
    23     8     9 1   
    24     8    23 1   
    25     8    36 1   
    26     8    37 1   
    27     9    38 1   
    28     9    39 1   
    29    10    25 ar  
    30    10    27 1   
    31    11    27 1   
    32    11    40 1   
    33    12    28 ar  
    34    12    59 1   
    35    13    22 1   
    36    13    41 1   
    37    13    42 1   
    38    14    15 ar  
    39    14    29 1   
    40    15    16 ar  
    41    15    46 1   
    42    16    24 1   
    43    17    18 1   
    44    17    24 1   
    45    17    30 2   
    46    18    19 1   
    47    18    47 1   
    48    18    48 1   
    49    19    49 1   
    50    19    50 1   
    51    20    51 1   
    52    21    26 3   
    53    22    23 1   
    54    22    52 1   
    55    22    53 1   
    56    23    54 1   
    57    23    55 1   
    58    27    57 1   
    59    29    60 1   
    60    34    59 1   
    61    43    60 1   
    62    44    60 1   
    63    45    60 1   
    64    56    58 1   
@<TRIPOS>SUBSTRUCTURE
     1 FZL         1 TEMP              0 ****  ****    0 ROOT
