@<TRIPOS>MOLECULE
FZM
   26    28     1     0     0
SMALL
No Charge or Current Charge


@<TRIPOS>ATOM
      1 C12          3.6260    -1.1790    -0.1430 ca         1 FZM      -0.115000
      2 C13          3.6040     1.2330     0.1280 ca         1 FZM      -0.115000
      3 C14          4.3190     0.0320    -0.0020 ca         1 FZM      -0.112000
      4 C11          2.2200    -1.1940    -0.1480 ca         1 FZM      -0.097000
      5 C10          2.1980     1.2210     0.1220 ca         1 FZM      -0.097000
      6 N01         -0.7650     1.1480    -0.1330 nc         1 FZM      -0.654000
      7 C02          0.0110     0.0150    -0.0290 cc         1 FZM       0.289500
      8 N03         -2.0270    -0.6630     0.0270 na         1 FZM      -0.172500
      9 C04         -1.9940     0.6670    -0.0990 cd         1 FZM       0.387800
     10 C05         -0.7340    -1.1400     0.0840 cd         1 FZM      -0.195000
     11 C06          1.4840     0.0070    -0.0040 ca         1 FZM      -0.098500
     12 C07         -3.3420    -1.2270     0.1150 c5         1 FZM       0.072600
     13 C08         -3.3440     1.3020    -0.1300 c5         1 FZM      -0.102700
     14 C09         -4.2980     0.0420     0.1410 c5         1 FZM      -0.099400
     15 H1           4.1780    -2.1100    -0.2510 ha         1 FZM       0.109000
     16 H2           4.1380     2.1750     0.2330 ha         1 FZM       0.109000
     17 H3           5.4070     0.0420     0.0020 ha         1 FZM       0.109000
     18 H4           1.7130    -2.1470    -0.2720 ha         1 FZM       0.118500
     19 H5           1.6640     2.1630     0.2230 ha         1 FZM       0.118500
     20 H7          -0.4690    -2.1830     0.2020 h4         1 FZM       0.159000
     21 H8          -3.5380    -1.8630    -0.7590 h1         1 FZM       0.061200
     22 H9          -3.4560     2.0760     0.6370 hc         1 FZM       0.071700
     23 H10         -5.0960    -0.0360    -0.6080 hc         1 FZM       0.059700
     24 H6          -3.4460    -1.8390     1.0210 h1         1 FZM       0.061200
     25 H11         -3.5480     1.7650    -1.1010 hc         1 FZM       0.071700
     26 H12         -4.7890     0.1320     1.1170 hc         1 FZM       0.059700
@<TRIPOS>BOND
     1     1     3 ar  
     2     1     4 ar  
     3     1    15 1   
     4     2     3 ar  
     5     2     5 ar  
     6     2    16 1   
     7     3    17 1   
     8     4    11 ar  
     9     4    18 1   
    10     5    11 ar  
    11     5    19 1   
    12     6     7 1   
    13     6     9 2   
    14     7    10 2   
    15     7    11 1   
    16     8     9 1   
    17     8    10 1   
    18     8    12 1   
    19     9    13 1   
    20    10    20 1   
    21    12    14 1   
    22    12    21 1   
    23    12    24 1   
    24    13    14 1   
    25    13    22 1   
    26    13    25 1   
    27    14    23 1   
    28    14    26 1   
@<TRIPOS>SUBSTRUCTURE
     1 FZM         1 TEMP              0 ****  ****    0 ROOT
