@<TRIPOS>MOLECULE
FZM
   26    28     1     0     0
SMALL
abcg2


@<TRIPOS>ATOM
      1 C12          3.6460    -1.1470     0.0070 ca         1 FZM      -0.115000
      2 C13          3.5530     1.2480     0.0330 ca         1 FZM      -0.115000
      3 C14          4.3010     0.0780     0.0270 ca         1 FZM      -0.112000
      4 C11          2.2610    -1.2020    -0.0080 ca         1 FZM      -0.097000
      5 C10          2.1660     1.1950     0.0190 ca         1 FZM      -0.097000
      6 N01         -0.7200     1.0730    -0.0350 nc         1 FZM      -0.654000
      7 C02          0.0360    -0.0760    -0.0160 cc         1 FZM       0.289500
      8 N03         -2.0460    -0.6800    -0.0060 na         1 FZM      -0.172500
      9 C04         -1.9590     0.6610    -0.0320 cd         1 FZM       0.387800
     10 C05         -0.7850    -1.1840    -0.0050 cd         1 FZM      -0.195000
     11 C06          1.4970    -0.0310    -0.0010 ca         1 FZM      -0.098500
     12 C07         -3.4020    -1.1880    -0.0610 c5         1 FZM       0.072600
     13 C08         -3.3160     1.2740    -0.0940 c5         1 FZM      -0.102700
     14 C09         -4.2180     0.0760     0.2720 c5         1 FZM      -0.099400
     15 H1           4.2170    -2.0670     0.0020 ha         1 FZM       0.109000
     16 H2           4.0500     2.2090     0.0490 ha         1 FZM       0.109000
     17 H3           5.3820     0.1200     0.0370 ha         1 FZM       0.109000
     18 H4           1.7740    -2.1700    -0.0250 ha         1 FZM       0.118500
     19 H5           1.5910     2.1120     0.0250 ha         1 FZM       0.118500
     20 H7          -0.5800    -2.2410     0.0150 h4         1 FZM       0.159000
     21 H8          -3.6180    -1.5720    -1.0600 h1         1 FZM       0.061200
     22 H9          -3.4360     2.1120     0.5920 hc         1 FZM       0.071700
     23 H10         -5.1670     0.0910    -0.2590 hc         1 FZM       0.059700
     24 H6          -3.5520    -1.9920     0.6580 h1         1 FZM       0.061200
     25 H11         -3.5230     1.6420    -1.1020 hc         1 FZM       0.071700
     26 H12         -4.4350     0.0960     1.3400 hc         1 FZM       0.059700
@<TRIPOS>BOND
     1     1     3 ar  
     2     1     4 ar  
     3     1    15 1   
     4     2     3 ar  
     5     2     5 ar  
     6     2    16 1   
     7     3    17 1   
     8     4    11 ar  
     9     4    18 1   
    10     5    11 ar  
    11     5    19 1   
    12     6     7 1   
    13     6     9 2   
    14     7    10 2   
    15     7    11 1   
    16     8     9 1   
    17     8    10 1   
    18     8    12 1   
    19     9    13 1   
    20    10    20 1   
    21    12    14 1   
    22    12    21 1   
    23    12    24 1   
    24    13    14 1   
    25    13    22 1   
    26    13    25 1   
    27    14    23 1   
    28    14    26 1   
@<TRIPOS>SUBSTRUCTURE
     1 FZM         1 TEMP              0 ****  ****    0 ROOT
