@<TRIPOS>MOLECULE
FZN
   82    85     1     0     0
SMALL
No Charge or Current Charge


@<TRIPOS>ATOM
      1 N           -2.2900    24.6430   -23.6120 n8         1 FZN      -1.003200
      2 CA          -3.3730    23.6850   -23.1800 c3         1 FZN       0.011500
      3 CB          -4.0720    24.2210   -21.9000 c3         1 FZN      -0.042400
      4 C           -4.4250    23.2840   -24.2980 c          1 FZN       0.688000
      5 O           -5.0180    24.1780   -24.8890 o          1 FZN      -0.735000
      6 C4          -5.7130    23.7630   -19.9630 c3         1 FZN      -0.066400
      7 C5          -6.7120    22.7700   -19.3310 c3         1 FZN       0.107800
      8 N2          -7.2970    23.3550   -18.1090 n2         1 FZN      -0.596900
      9 C6          -7.0510    22.9710   -16.9020 c2         1 FZN       0.480200
     10 C7          -7.7540    23.6630   -15.7530 c3         1 FZN      -0.141400
     11 S1          -5.9430    21.5910   -16.5480 ss         1 FZN      -0.451200
     12 C8          -5.2000    22.3240   -15.0000 c5         1 FZN       0.298300
     13 O3          -4.3240    21.3540   -14.4200 os         1 FZN      -0.413000
     14 C11         -3.4920    22.0760   -13.4790 c5         1 FZN       0.105300
     15 C10         -3.2060    23.4530   -14.1860 c5         1 FZN       0.130300
     16 O2          -1.8840    23.5510   -14.7120 oh         1 FZN      -0.659000
     17 C9          -4.2000    23.4630   -15.4040 c5         1 FZN       0.089300
     18 O1          -3.4930    23.1580   -16.6330 oh         1 FZN      -0.734000
     19 C12         -4.1980    22.2480   -12.0990 c3         1 FZN       0.250600
     20 O4          -4.6180    20.9690   -11.6090 os         1 FZN      -0.583400
     21 P1          -5.7350    20.9450   -10.4500 p5         1 FZN       1.474800
     22 O5          -5.7980    19.6250    -9.7570 o          1 FZN      -0.847000
     23 O6          -5.4680    22.0280    -9.4570 o          1 FZN      -0.847000
     24 O7          -6.9980    21.3160   -11.3180 os         1 FZN      -0.731800
     25 P2          -7.8120    20.1350   -11.9710 p5         1 FZN       1.457800
     26 O8          -8.6580    20.6730   -13.0750 o          1 FZN      -0.844000
     27 O9          -6.9780    19.0020   -12.4680 o          1 FZN      -0.844000
     28 O10         -8.7110    19.7180   -10.6980 os         1 FZN      -0.581400
     29 CZ1         -9.8440    20.5080   -10.2990 c3         1 FZN       0.230600
     30 CZ2        -11.1140    20.1330   -11.1370 c5         1 FZN       0.137300
     31 CZ4        -12.4230    20.8170   -10.6390 c5         1 FZN       0.154300
     32 OZ5        -13.4920    20.7540   -11.5950 oh         1 FZN      -0.729000
     33 CZ6        -12.7830    19.9150    -9.4150 c5         1 FZN       0.083300
     34 OZ7        -14.2110    19.9150    -9.1860 oh         1 FZN      -0.711000
     35 CZ8        -12.2010    18.5050    -9.8250 c5         1 FZN       0.270300
     36 OZ3        -11.4290    18.7190   -11.0300 os         1 FZN      -0.468000
     37 N9         -11.3810    17.8370    -8.8150 na         1 FZN      -0.277300
     38 C17        -11.7030    17.5510    -7.5120 ca         1 FZN       0.121500
     39 C14        -10.6490    16.8560    -6.9750 ca         1 FZN      -0.092600
     40 N10         -9.6210    16.6550    -7.8900 nc         1 FZN      -0.581100
     41 CZ9        -10.1050    17.2640    -8.9920 cd         1 FZN       0.444700
     42 N13        -12.8080    17.8380    -6.7940 nb         1 FZN      -0.202000
     43 C16        -12.8140    17.4020    -5.5120 ca         1 FZN       0.155900
     44 N12        -11.8290    16.7130    -4.8880 nb         1 FZN      -0.325000
     45 C15        -10.7430    16.4440    -5.6270 ca         1 FZN       0.438900
     46 N11         -9.7590    15.7450    -5.0010 nv         1 FZN      -1.079900
     47 C13         -5.0730    23.2270   -21.2630 c3         1 FZN      -0.078400
     48 OXT         -4.5120    22.1060   -24.6150 o          1 FZN      -0.735000
     49 HN          -1.7960    24.2460   -24.4200 hn         1 FZN       0.376000
     50 HB          -3.3090    24.4710   -21.1530 hc         1 FZN       0.018200
     51 HBA         -4.5990    25.1540   -22.1380 hc         1 FZN       0.018200
     52 H4          -4.9210    23.9880   -19.2380 hc         1 FZN       0.031200
     53 H4A         -6.2300    24.7060   -20.1780 hc         1 FZN       0.031200
     54 H5          -7.5070    22.5560   -20.0580 h1         1 FZN       0.062700
     55 H5A         -6.1950    21.8200   -19.1470 h1         1 FZN       0.062700
     56 H7          -8.6770    24.1490   -16.0910 hc         1 FZN       0.048700
     57 H7A         -8.0380    22.9490   -14.9720 hc         1 FZN       0.048700
     58 H7B         -7.1230    24.4400   -15.3060 hc         1 FZN       0.048700
     59 H8          -5.9530    22.6440   -14.2690 h2         1 FZN       0.070700
     60 H11         -2.5680    21.5060   -13.3180 h1         1 FZN       0.071700
     61 H10         -3.4110    24.2920   -13.5050 h1         1 FZN       0.088700
     62 HO2         -2.0640    23.4180   -15.6820 ho         1 FZN       0.497000
     63 H9          -4.7170    24.4290   -15.4900 h1         1 FZN       0.067700
     64 HO1         -4.0370    22.4590   -17.0760 ho         1 FZN       0.532000
     65 H12         -3.4910    22.7130   -11.3990 h1         1 FZN       0.036200
     66 H12A        -5.0530    22.9290   -12.2110 h1         1 FZN       0.036200
     67 HZ1        -10.0430    20.3510    -9.2310 h1         1 FZN       0.028700
     68 HZ1A        -9.6360    21.5770   -10.4340 h1         1 FZN       0.028700
     69 HZ2        -10.9330    20.3810   -12.1890 h1         1 FZN       0.096700
     70 HZ4        -12.2380    21.8570   -10.3270 h1         1 FZN       0.128700
     71 HOZ5       -14.2450    20.4310   -11.0360 ho         1 FZN       0.506000
     72 HZ6        -12.2570    20.2850    -8.5220 h1         1 FZN       0.084700
     73 HOZ7       -14.3720    19.4620    -8.3230 ho         1 FZN       0.504000
     74 HZ8        -13.0190    17.8080   -10.0470 h2         1 FZN       0.092700
     75 HZ9         -9.5970    17.3170    -9.9490 h5         1 FZN       0.099800
     76 H16        -13.7010    17.6280    -4.9240 h5         1 FZN       0.029100
     77 HN11       -10.0010    15.2330    -4.1580 hn         1 FZN       0.498000
     78 HN1A        -9.0330    15.3440    -5.5900 hn         1 FZN       0.498000
     79 H13         -5.8700    22.9970   -21.9810 hc         1 FZN       0.055700
     80 H13A        -4.5550    22.2840   -21.0470 hc         1 FZN       0.055700
     81 HA          -2.8620    22.7550   -22.8950 h1         1 FZN       0.041700
     82 HNA         -2.7400    25.4800   -24.0030 hn         1 FZN       0.376000
@<TRIPOS>BOND
     1     1     2 1   
     2     1    49 1   
     3     1    82 1   
     4     2     3 1   
     5     2     4 1   
     6     2    81 1   
     7     3    47 1   
     8     3    50 1   
     9     3    51 1   
    10     4     5 1   
    11     4    48 1   
    12     6     7 1   
    13     6    47 1   
    14     6    52 1   
    15     6    53 1   
    16     7     8 1   
    17     7    54 1   
    18     7    55 1   
    19     8     9 2   
    20     9    10 1   
    21     9    11 1   
    22    10    56 1   
    23    10    57 1   
    24    10    58 1   
    25    11    12 1   
    26    12    13 1   
    27    12    17 1   
    28    12    59 1   
    29    13    14 1   
    30    14    15 1   
    31    14    19 1   
    32    14    60 1   
    33    15    16 1   
    34    15    17 1   
    35    15    61 1   
    36    16    62 1   
    37    17    18 1   
    38    17    63 1   
    39    18    64 1   
    40    19    20 1   
    41    19    65 1   
    42    19    66 1   
    43    20    21 1   
    44    21    22 1   
    45    21    23 1   
    46    21    24 1   
    47    24    25 1   
    48    25    26 1   
    49    25    27 1   
    50    25    28 1   
    51    28    29 1   
    52    29    30 1   
    53    29    67 1   
    54    29    68 1   
    55    30    31 1   
    56    30    36 1   
    57    30    69 1   
    58    31    32 1   
    59    31    33 1   
    60    31    70 1   
    61    32    71 1   
    62    33    34 1   
    63    33    35 1   
    64    33    72 1   
    65    34    73 1   
    66    35    36 1   
    67    35    37 1   
    68    35    74 1   
    69    37    38 1   
    70    37    41 1   
    71    38    39 ar  
    72    38    42 ar  
    73    39    40 1   
    74    39    45 ar  
    75    40    41 2   
    76    41    75 1   
    77    42    43 ar  
    78    43    44 ar  
    79    43    76 1   
    80    44    45 ar  
    81    45    46 1   
    82    46    77 1   
    83    46    78 1   
    84    47    79 1   
    85    47    80 1   
@<TRIPOS>SUBSTRUCTURE
     1 FZN         1 TEMP              0 ****  ****    0 ROOT
