@<TRIPOS>MOLECULE
FZN
   82    85     1     0     0
SMALL
bcc


@<TRIPOS>ATOM
      1 N           -4.2110    23.8450   -25.8610 n8         1 FZN      -0.892800
      2 CA          -4.7950    23.6120   -24.5410 c3         1 FZN       0.011500
      3 CB          -4.0710    24.5040   -23.5300 c3         1 FZN      -0.042400
      4 C           -6.3190    23.8740   -24.4710 c          1 FZN       0.898600
      5 O           -6.7160    24.9290   -25.0100 o          1 FZN      -0.840300
      6 C4          -3.7200    25.1690   -21.1050 c3         1 FZN      -0.066400
      7 C5          -4.2430    25.0210   -19.6850 c3         1 FZN       0.107800
      8 N2          -3.5270    25.8750   -18.7670 n2         1 FZN      -0.596900
      9 C6          -3.6450    25.7490   -17.5200 c2         1 FZN       0.480200
     10 C7          -2.9050    26.6530   -16.5830 c3         1 FZN      -0.141400
     11 S1          -4.7950    24.5730   -16.8190 ss         1 FZN      -0.403300
     12 C8          -4.5110    24.5940   -14.9980 c5         1 FZN       0.227200
     13 O3          -5.5870    23.8760   -14.4720 os         1 FZN      -0.366600
     14 C11         -5.1540    22.5500   -14.1870 c5         1 FZN       0.082100
     15 C10         -3.7590    22.7900   -13.6060 c5         1 FZN       0.107100
     16 O2          -2.9250    21.6830   -13.4810 oh         1 FZN      -0.536800
     17 C9          -3.2090    23.8800   -14.5550 c5         1 FZN       0.066100
     18 O1          -2.4340    23.3240   -15.5810 oh         1 FZN      -0.611800
     19 C12         -6.1560    21.9210   -13.2430 c3         1 FZN       0.227400
     20 O4          -5.7890    20.5720   -13.1010 os         1 FZN      -0.560200
     21 P1          -6.0520    19.7700   -11.6950 p5         1 FZN       1.474800
     22 O5          -5.7930    18.3330   -12.0050 o          1 FZN      -0.847000
     23 O6          -5.3480    20.4790   -10.5810 o          1 FZN      -0.847000
     24 O7          -7.6570    20.0340   -11.4280 os         1 FZN      -0.731800
     25 P2          -8.9710    19.4660   -12.2370 p5         1 FZN       1.457800
     26 O8         -10.1220    20.3110   -11.7820 o          1 FZN      -0.844000
     27 O9          -8.6680    19.2500   -13.6830 o          1 FZN      -0.844000
     28 O10         -9.0920    17.9540   -11.5980 os         1 FZN      -0.558200
     29 CZ1         -9.4580    17.7430   -10.2570 c3         1 FZN       0.207400
     30 CZ2        -10.7020    16.8710   -10.1970 c5         1 FZN       0.114100
     31 CZ4        -11.9610    17.5320   -10.7420 c5         1 FZN       0.131100
     32 OZ5        -12.8160    16.5140   -11.2060 oh         1 FZN      -0.606800
     33 CZ6        -12.5150    18.2030    -9.4880 c5         1 FZN       0.060100
     34 OZ7        -13.8740    18.4890    -9.6100 oh         1 FZN      -0.588800
     35 CZ8        -12.1860    17.1470    -8.4240 c5         1 FZN       0.217800
     36 OZ3        -10.9720    16.5720    -8.8220 os         1 FZN      -0.421600
     37 N9         -12.0400    17.6630    -7.0870 na         1 FZN      -0.248000
     38 C17        -12.6680    17.2120    -5.9610 ca         1 FZN       0.449800
     39 C14        -12.1180    17.9440    -4.9200 ca         1 FZN      -0.223200
     40 N10        -11.1700    18.8190    -5.3860 nc         1 FZN      -0.581100
     41 CZ9        -11.1470    18.6160    -6.6690 cd         1 FZN       0.444700
     42 N13        -13.6040    16.2720    -5.8590 nb         1 FZN      -0.728000
     43 C16        -13.9800    16.0920    -4.6040 ca         1 FZN       0.681900
     44 N12        -13.5450    16.7140    -3.5120 nb         1 FZN      -0.851000
     45 C15        -12.6030    17.6570    -3.6310 ca         1 FZN       0.767200
     46 N11        -12.1640    18.2820    -2.5380 nv         1 FZN      -0.969500
     47 C13         -4.5350    24.3400   -22.0900 c3         1 FZN      -0.078400
     48 OXT         -7.0200    23.0370   -23.8650 o          1 FZN      -0.840300
     49 HN          -4.6200    23.1920   -26.5200 hn         1 FZN       0.320800
     50 HB          -2.9980    24.3020   -23.5980 hc         1 FZN       0.018200
     51 HBA         -4.2060    25.5500   -23.8290 hc         1 FZN       0.018200
     52 H4          -2.6660    24.8790   -21.1460 hc         1 FZN       0.031200
     53 H4A         -3.7650    26.2240   -21.3900 hc         1 FZN       0.031200
     54 H5          -5.3060    25.2960   -19.6750 h1         1 FZN       0.062700
     55 H5A         -4.1980    23.9660   -19.3810 h1         1 FZN       0.062700
     56 H7          -2.3300    27.3730   -17.1620 hc         1 FZN       0.048700
     57 H7A         -3.5880    27.1960   -15.9300 hc         1 FZN       0.048700
     58 H7B         -2.2160    26.0920   -15.9520 hc         1 FZN       0.048700
     59 H8          -4.5610    25.6230   -14.6430 h2         1 FZN       0.070700
     60 H11         -5.0960    21.9530   -15.1110 h1         1 FZN       0.071700
     61 H10         -3.8860    23.2210   -12.6060 h1         1 FZN       0.088700
     62 HO2         -2.4880    21.5490   -14.3310 ho         1 FZN       0.398000
     63 H9          -2.5610    24.5790   -14.0240 h1         1 FZN       0.067700
     64 HO1         -3.0070    23.0180   -16.2980 ho         1 FZN       0.433000
     65 H12         -6.1330    22.4700   -12.2930 h1         1 FZN       0.036200
     66 H12A        -7.1710    21.9990   -13.6490 h1         1 FZN       0.036200
     67 HZ1         -8.6430    17.2230    -9.7440 h1         1 FZN       0.028700
     68 HZ1A        -9.6280    18.6800    -9.7160 h1         1 FZN       0.028700
     69 HZ2        -10.5120    15.9320   -10.7260 h1         1 FZN       0.096700
     70 HZ4        -11.7390    18.2650   -11.5240 h1         1 FZN       0.128700
     71 HOZ5       -13.6630    16.9090   -11.4370 ho         1 FZN       0.407000
     72 HZ6        -11.9300    19.1140    -9.3010 h1         1 FZN       0.084700
     73 HOZ7       -14.1330    19.0860    -8.9010 ho         1 FZN       0.405000
     74 HZ8        -12.9890    16.4030    -8.3780 h2         1 FZN       0.092700
     75 HZ9        -10.5010    19.1300    -7.3650 h5         1 FZN       0.099800
     76 H16        -14.7420    15.3380    -4.4380 h5         1 FZN       0.029100
     77 HN11       -12.5230    18.0330    -1.6330 hn         1 FZN       0.442800
     78 HN1A       -11.4390    18.9760    -2.5910 hn         1 FZN       0.442800
     79 H13         -5.5840    24.6360   -22.0020 hc         1 FZN       0.055700
     80 H13A        -4.4930    23.2820   -21.8060 hc         1 FZN       0.055700
     81 HA          -4.6070    22.5660   -24.2730 h1         1 FZN       0.041700
     82 HNA         -4.5320    24.7560   -26.1710 hn         1 FZN       0.320800
@<TRIPOS>BOND
     1     1     2 1   
     2     1    49 1   
     3     1    82 1   
     4     2     3 1   
     5     2     4 1   
     6     2    81 1   
     7     3    47 1   
     8     3    50 1   
     9     3    51 1   
    10     4     5 1   
    11     4    48 1   
    12     6     7 1   
    13     6    47 1   
    14     6    52 1   
    15     6    53 1   
    16     7     8 1   
    17     7    54 1   
    18     7    55 1   
    19     8     9 2   
    20     9    10 1   
    21     9    11 1   
    22    10    56 1   
    23    10    57 1   
    24    10    58 1   
    25    11    12 1   
    26    12    13 1   
    27    12    17 1   
    28    12    59 1   
    29    13    14 1   
    30    14    15 1   
    31    14    19 1   
    32    14    60 1   
    33    15    16 1   
    34    15    17 1   
    35    15    61 1   
    36    16    62 1   
    37    17    18 1   
    38    17    63 1   
    39    18    64 1   
    40    19    20 1   
    41    19    65 1   
    42    19    66 1   
    43    20    21 1   
    44    21    22 1   
    45    21    23 1   
    46    21    24 1   
    47    24    25 1   
    48    25    26 1   
    49    25    27 1   
    50    25    28 1   
    51    28    29 1   
    52    29    30 1   
    53    29    67 1   
    54    29    68 1   
    55    30    31 1   
    56    30    36 1   
    57    30    69 1   
    58    31    32 1   
    59    31    33 1   
    60    31    70 1   
    61    32    71 1   
    62    33    34 1   
    63    33    35 1   
    64    33    72 1   
    65    34    73 1   
    66    35    36 1   
    67    35    37 1   
    68    35    74 1   
    69    37    38 1   
    70    37    41 1   
    71    38    39 ar  
    72    38    42 ar  
    73    39    40 1   
    74    39    45 ar  
    75    40    41 2   
    76    41    75 1   
    77    42    43 ar  
    78    43    44 ar  
    79    43    76 1   
    80    44    45 ar  
    81    45    46 1   
    82    46    77 1   
    83    46    78 1   
    84    47    79 1   
    85    47    80 1   
@<TRIPOS>SUBSTRUCTURE
     1 FZN         1 TEMP              0 ****  ****    0 ROOT
