@<TRIPOS>MOLECULE
FZO
   58    62     1     0     0
SMALL
abcg2


@<TRIPOS>ATOM
      1 C10        -33.0370   -14.3130    -7.3800 c5         1 FZO       0.095000
      2 C13        -34.0520   -18.0430    -9.1430 ca         1 FZO      -0.056000
      3 C20        -37.7440   -22.0950   -12.9480 cc         1 FZO      -0.020900
      4 C21        -38.6530   -21.6010   -13.9040 cg         1 FZO       0.320700
      5 C28        -38.5490   -16.7860   -12.0440 c6         1 FZO      -0.130900
      6 C01        -34.5970   -20.0590    -4.8540 c3         1 FZO       0.148900
      7 C03        -34.3590   -19.0020    -6.9710 ca         1 FZO       0.132100
      8 C04        -34.1450   -17.7580    -6.3920 ca         1 FZO      -0.198000
      9 C05        -33.9230   -16.6360    -7.1940 ca         1 FZO       0.007000
     10 C07        -34.2840   -14.9000    -5.4810 c          1 FZO       0.568000
     11 C08        -33.9150   -13.4400    -5.3440 c5         1 FZO      -0.169400
     12 C09        -32.7610   -13.2560    -6.3170 c5         1 FZO      -0.092400
     13 C12        -33.8710   -16.7910    -8.5760 ca         1 FZO      -0.184000
     14 C14        -34.3240   -19.1580    -8.3670 ca         1 FZO       0.256000
     15 C16        -35.3600   -20.7520    -9.9420 ca         1 FZO       0.448900
     16 C18        -36.2520   -22.2930   -11.2520 ca         1 FZO       0.193500
     17 C19        -37.0080   -21.3600   -11.9590 ca         1 FZO      -0.275800
     18 C23        -37.4040   -23.4160   -12.7940 cd         1 FZO      -0.129100
     19 C25        -36.8520   -20.0200   -11.5350 ca         1 FZO       0.473900
     20 C27        -37.3020   -17.6110   -11.7490 c6         1 FZO       0.236500
     21 C29        -38.2770   -15.3190   -11.7380 c6         1 FZO       0.157100
     22 C31        -35.9850   -15.5290   -12.1530 c6         1 FZO       0.157100
     23 C32        -36.1110   -17.0070   -12.4900 c6         1 FZO      -0.130900
     24 N06        -33.7160   -15.3670    -6.6340 n          1 FZO      -0.231400
     25 N15        -34.5240   -20.4300    -8.9140 nu         1 FZO      -0.927900
     26 N17        -35.4210   -22.0450   -10.2450 nb         1 FZO      -0.301000
     27 N22        -39.3960   -21.1770   -14.6800 n1         1 FZO      -0.477000
     28 N24        -36.5130   -23.5230   -11.7780 na         1 FZO      -0.314400
     29 N26        -37.5220   -19.0020   -12.0910 nu         1 FZO      -0.912100
     30 N33        -36.0220   -19.7560   -10.5320 nb         1 FZO      -0.343000
     31 O11        -34.9850   -15.5350    -4.7190 o          1 FZO      -0.531000
     32 O30        -37.1670   -14.8200   -12.4490 os         1 FZO      -0.449000
     33 H1         -32.1290   -14.6980    -7.8440 h1         1 FZO       0.053200
     34 H2         -33.6820   -13.9220    -8.1730 h1         1 FZO       0.053200
     35 H3         -33.9900   -18.1470   -10.2160 ha         1 FZO       0.130000
     36 H4         -38.8340   -16.8980   -13.0950 hc         1 FZO       0.058200
     37 H5         -39.3900   -17.1300   -11.4380 hc         1 FZO       0.058200
     38 H6         -34.8030   -21.0670    -4.5010 h1         1 FZO       0.044700
     39 H7         -33.6300   -19.7390    -4.4580 h1         1 FZO       0.044700
     40 H8         -35.3740   -19.3890    -4.4750 h1         1 FZO       0.044700
     41 H9         -34.1560   -17.6560    -5.3190 ha         1 FZO       0.144000
     42 H10        -33.6800   -13.1920    -4.3100 hc         1 FZO       0.079700
     43 H11        -34.7870   -12.8450    -5.6330 hc         1 FZO       0.079700
     44 H12        -31.8120   -13.4660    -5.8230 hc         1 FZO       0.060700
     45 H13        -32.7060   -12.2560    -6.7420 hc         1 FZO       0.060700
     46 H14        -33.6860   -15.9480    -9.2270 ha         1 FZO       0.114000
     47 H15        -37.7430   -24.2800   -13.3420 h4         1 FZO       0.227000
     48 H16        -37.1010   -17.5640   -10.6760 h1         1 FZO       0.088700
     49 H17        -38.1230   -15.2000   -10.6550 h1         1 FZO       0.046450
     50 H18        -39.1370   -14.7070   -12.0140 h1         1 FZO       0.046450
     51 H19        -35.7260   -15.4190   -11.0880 h1         1 FZO       0.046450
     52 H20        -35.1820   -15.0690   -12.7310 h1         1 FZO       0.046450
     53 H21        -36.2490   -17.1340   -13.5680 hc         1 FZO       0.058200
     54 H22        -35.1880   -17.5230   -12.2150 hc         1 FZO       0.058200
     55 H23        -34.1670   -21.2200    -8.3990 hn         1 FZO       0.520000
     56 H24        -36.1000   -24.3870   -11.4600 hn         1 FZO       0.366000
     57 H25        -38.0780   -19.1860   -12.9120 hn         1 FZO       0.502000
     58 O02        -34.5970   -20.1230    -6.2650 os         1 FZO      -0.350100
@<TRIPOS>BOND
     1     1    12 1   
     2     1    24 1   
     3     1    33 1   
     4     1    34 1   
     5     2    13 ar  
     6     2    14 ar  
     7     2    35 1   
     8     3     4 1   
     9     3    17 1   
    10     3    18 2   
    11     4    27 3   
    12     5    20 1   
    13     5    21 1   
    14     5    36 1   
    15     5    37 1   
    16     6    38 1   
    17     6    39 1   
    18     6    40 1   
    19     6    58 1   
    20     7     8 ar  
    21     7    14 ar  
    22     7    58 1   
    23     8     9 ar  
    24     8    41 1   
    25     9    13 ar  
    26     9    24 1   
    27    10    11 1   
    28    10    24 1   
    29    10    31 2   
    30    11    12 1   
    31    11    42 1   
    32    11    43 1   
    33    12    44 1   
    34    12    45 1   
    35    13    46 1   
    36    14    25 1   
    37    15    25 1   
    38    15    26 ar  
    39    15    30 ar  
    40    16    17 ar  
    41    16    26 ar  
    42    16    28 1   
    43    17    19 ar  
    44    18    28 1   
    45    18    47 1   
    46    19    29 1   
    47    19    30 ar  
    48    20    23 1   
    49    20    29 1   
    50    20    48 1   
    51    21    32 1   
    52    21    49 1   
    53    21    50 1   
    54    22    23 1   
    55    22    32 1   
    56    22    51 1   
    57    22    52 1   
    58    23    53 1   
    59    23    54 1   
    60    25    55 1   
    61    28    56 1   
    62    29    57 1   
@<TRIPOS>SUBSTRUCTURE
     1 FZO         1 TEMP              0 ****  ****    0 ROOT
