@<TRIPOS>MOLECULE
FZP
   60    63     1     0     0
SMALL
bcc


@<TRIPOS>ATOM
      1 C4          -6.5400     0.1860     0.0930 cc         1 FZP       0.576200
      2 C14          5.5920     2.1290    -0.0540 ca         1 FZP       0.152900
      3 C5          -4.1450    -0.4170     0.1290 ca         1 FZP       0.945900
      4 C6          -1.8950    -0.6470     0.1050 ca         1 FZP       0.636200
      5 C11          2.8980     2.5760     0.3610 ca         1 FZP      -0.118300
      6 C7          -2.0250    -2.0290     0.2680 ca         1 FZP      -0.448600
      7 C8          -3.3190    -2.4960     0.3490 ca         1 FZP       0.486200
      8 C9          -0.3600     1.2020     0.4690 c          1 FZP       0.779100
      9 C10          1.4270     2.7680     0.5640 c3         1 FZP       0.209700
     10 C12          3.5880     3.2820    -0.6160 ca         1 FZP      -0.075000
     11 C13          4.9440     3.0680    -0.8310 ca         1 FZP      -0.175500
     12 N1          -8.5880     0.6930     0.0190 na         1 FZP       0.113400
     13 N2          -7.3620     1.2100    -0.0660 nd         1 FZP      -0.584800
     14 C3          -7.2450    -1.0170     0.2840 cc         1 FZP      -0.305300
     15 N3          -5.1830     0.4520     0.0520 nu         1 FZP      -0.821600
     16 C1          -9.7400     1.5500    -0.1040 c3         1 FZP       0.049600
     17 C15          4.9380     1.4070     0.9290 ca         1 FZP      -0.175500
     18 C16          3.5880     1.6400     1.1300 ca         1 FZP      -0.075000
     19 C17          0.4240    -0.8490    -0.5870 ca         1 FZP       0.085600
     20 C18          0.3570    -1.2060    -1.9250 ca         1 FZP      -0.147000
     21 C19          1.3910    -1.9560    -2.4610 ca         1 FZP      -0.096000
     22 C2          -8.5660    -0.6290     0.2270 cd         1 FZP      -0.130300
     23 C20          2.4900    -2.3290    -1.7000 ca         1 FZP      -0.144000
     24 C21          2.5550    -1.9540    -0.3560 ca         1 FZP       0.085600
     25 C22          1.4980    -1.2320     0.1970 ca         1 FZP      -0.187000
     26 C23          4.8810    -2.6590     0.1820 c          1 FZP       0.673100
     27 C24          5.7880    -2.7790     1.3890 c3         1 FZP      -0.158400
     28 C25          7.1670    -3.3160     1.0540 c3         1 FZP      -0.077100
     29 N4          -2.9390     0.1470     0.0220 nb         1 FZP      -0.787000
     30 N5          -4.3900    -1.7130     0.2860 nb         1 FZP      -0.768000
     31 N6          -0.6260    -0.0720    -0.0110 n          1 FZP      -0.396500
     32 N7           3.6140    -2.2700     0.4980 ns         1 FZP      -0.481100
     33 O1          -1.0520     1.8110     1.2420 o          1 FZP      -0.529000
     34 O2           0.7860     1.6320    -0.0340 os         1 FZP      -0.423900
     35 O3           5.2540    -2.8800    -0.9530 o          1 FZP      -0.568100
     36 H1          -1.1800    -2.6960     0.3370 ha         1 FZP       0.162000
     37 H2          -3.5060    -3.5560     0.4810 h4         1 FZP       0.022100
     38 H3           1.1790     2.8270     1.6240 h1         1 FZP       0.061700
     39 H4           1.0710     3.6790     0.0790 h1         1 FZP       0.061700
     40 H5           3.0690     4.0130    -1.2240 ha         1 FZP       0.135000
     41 H6           5.4830     3.6190    -1.5900 ha         1 FZP       0.149000
     42 H7          -6.8540    -2.0050     0.4380 ha         1 FZP       0.187000
     43 H8          -4.9290     1.4200    -0.0800 hn         1 FZP       0.473800
     44 H9          -9.7250     2.0710    -1.0600 h1         1 FZP       0.054700
     45 H10        -10.6380     0.9420    -0.0490 h1         1 FZP       0.054700
     46 H11         -9.7600     2.2830     0.7010 h1         1 FZP       0.054700
     47 H12          5.4770     0.6890     1.5320 ha         1 FZP       0.149000
     48 H13          3.0690     1.0890     1.9040 ha         1 FZP       0.135000
     49 H14         -0.4830    -0.8990    -2.5340 ha         1 FZP       0.149000
     50 H15          1.3520    -2.2510    -3.5020 ha         1 FZP       0.139000
     51 H16         -9.4710    -1.2070     0.3220 h4         1 FZP       0.169000
     52 H17          3.2780    -2.9050    -2.1560 ha         1 FZP       0.167000
     53 H18          1.5230    -0.9560     1.2440 ha         1 FZP       0.133000
     54 H19          5.8700    -1.7920     1.8570 hc         1 FZP       0.055700
     55 H20          5.2990    -3.4130     2.1330 hc         1 FZP       0.055700
     56 H21          7.1150    -4.3160     0.6260 hc         1 FZP       0.045700
     57 H22          7.6890    -2.6730     0.3470 hc         1 FZP       0.045700
     58 H23          7.7710    -3.3740     1.9590 hc         1 FZP       0.045700
     59 H24          3.4410    -2.0850     1.4750 hn         1 FZP       0.312500
     60 F1           6.9010     1.9120    -0.2520 f          1 FZP      -0.139900
@<TRIPOS>BOND
     1     1    13 2   
     2     1    14 1   
     3     1    15 1   
     4     2    11 ar  
     5     2    17 ar  
     6     2    60 1   
     7     3    15 1   
     8     3    29 ar  
     9     3    30 ar  
    10     4     6 ar  
    11     4    29 ar  
    12     4    31 1   
    13     5     9 1   
    14     5    10 ar  
    15     5    18 ar  
    16     6     7 ar  
    17     6    36 1   
    18     7    30 ar  
    19     7    37 1   
    20     8    31 1   
    21     8    33 2   
    22     8    34 1   
    23     9    34 1   
    24     9    38 1   
    25     9    39 1   
    26    10    11 ar  
    27    10    40 1   
    28    11    41 1   
    29    12    13 1   
    30    12    16 1   
    31    12    22 1   
    32    14    22 2   
    33    14    42 1   
    34    15    43 1   
    35    16    44 1   
    36    16    45 1   
    37    16    46 1   
    38    17    18 ar  
    39    17    47 1   
    40    18    48 1   
    41    19    20 ar  
    42    19    25 ar  
    43    19    31 1   
    44    20    21 ar  
    45    20    49 1   
    46    21    23 ar  
    47    21    50 1   
    48    22    51 1   
    49    23    24 ar  
    50    23    52 1   
    51    24    25 ar  
    52    24    32 1   
    53    25    53 1   
    54    26    27 1   
    55    26    32 1   
    56    26    35 2   
    57    27    28 1   
    58    27    54 1   
    59    27    55 1   
    60    28    56 1   
    61    28    57 1   
    62    28    58 1   
    63    32    59 1   
@<TRIPOS>SUBSTRUCTURE
     1 FZP         1 TEMP              0 ****  ****    0 ROOT
