@<TRIPOS>MOLECULE
FZP
   60    63     1     0     0
SMALL
No Charge or Current Charge


@<TRIPOS>ATOM
      1 C4          -6.4720     0.3070    -0.2310 cc         1 FZP       0.510900
      2 C14          5.3790     3.2350     0.0870 ca         1 FZP       0.188000
      3 C5          -4.1520    -0.6520     0.1970 ca         1 FZP       0.419900
      4 C6          -1.9140    -1.0350     0.5430 ca         1 FZP       0.307900
      5 C11          2.7840     2.7030     1.0340 ca         1 FZP      -0.118300
      6 C7          -2.1900    -2.4090     0.6710 ca         1 FZP      -0.300000
      7 C8          -3.5250    -2.8230     0.5680 ca         1 FZP       0.157900
      8 C9          -0.2620     0.6550     1.2600 c          1 FZP       0.663100
      9 C10          1.3800     2.3970     1.5380 c3         1 FZP       0.232900
     10 C12          3.0130     3.7930     0.1700 ca         1 FZP      -0.057000
     11 C13          4.3120     4.0590    -0.3020 ca         1 FZP      -0.157500
     12 N1          -8.4020     1.0450    -0.5710 na         1 FZP       0.134800
     13 N2          -7.0740     1.4430    -0.4430 nd         1 FZP      -0.584800
     14 C3          -7.3120    -0.8110    -0.2130 cc         1 FZP      -0.222000
     15 N3          -5.1250     0.3020    -0.0560 nu         1 FZP      -0.876800
     16 C1          -9.4630     2.0310    -0.8250 c3         1 FZP       0.078900
     17 C15          5.1600     2.1470     0.9450 ca         1 FZP      -0.157500
     18 C16          3.8630     1.8810     1.4190 ca         1 FZP      -0.057000
     19 C17          0.4060    -1.2870    -0.2320 ca         1 FZP      -0.007000
     20 C18          0.0170    -1.9340    -1.4260 ca         1 FZP      -0.129000
     21 C19          0.9520    -2.6500    -2.1900 ca         1 FZP      -0.078000
     22 C2          -8.5710    -0.3390    -0.4330 cd         1 FZP      -0.163000
     23 C20          2.2910    -2.7340    -1.7760 ca         1 FZP      -0.126000
     24 C21          2.7020    -2.1050    -0.5840 ca         1 FZP      -0.007000
     25 C22          1.7530    -1.4030     0.1810 ca         1 FZP      -0.169000
     26 C23          5.2170    -2.6370    -0.6260 c          1 FZP       0.606100
     27 C24          6.4470    -2.4300     0.2700 c3         1 FZP      -0.158400
     28 C25          6.9160    -3.7530     0.9160 c3         1 FZP      -0.077100
     29 N4          -2.9060    -0.1590     0.2790 nb         1 FZP      -0.261000
     30 N5          -4.5120    -1.9410     0.3330 nb         1 FZP      -0.242000
     31 N6          -0.5650    -0.5400     0.5560 n          1 FZP      -0.236900
     32 N7           4.0360    -2.1390    -0.0930 ns         1 FZP      -0.155000
     33 O1          -1.0190     1.1860     2.0630 o          1 FZP      -0.480000
     34 O2           0.9410     1.1940     0.8920 os         1 FZP      -0.447100
     35 O3           5.3110    -3.1680    -1.7270 o          1 FZP      -0.568100
     36 H1          -1.3970    -3.1290     0.8540 ha         1 FZP       0.144000
     37 H2          -3.8080    -3.8690     0.6680 h4         1 FZP       0.022100
     38 H3           1.4090     2.2670     2.6290 h1         1 FZP       0.061700
     39 H4           0.7030     3.2320     1.3120 h1         1 FZP       0.061700
     40 H5           2.1880     4.4320    -0.1390 ha         1 FZP       0.117000
     41 H6           4.4900     4.8990    -0.9680 ha         1 FZP       0.131000
     42 H7          -7.0200    -1.8410    -0.0570 ha         1 FZP       0.169000
     43 H8          -4.7550     1.2440    -0.1270 hn         1 FZP       0.529000
     44 H9          -9.2620     2.5490    -1.7710 h1         1 FZP       0.054700
     45 H10        -10.4330     1.5240    -0.8890 h1         1 FZP       0.054700
     46 H11         -9.4880     2.7610    -0.0070 h1         1 FZP       0.054700
     47 H12          5.9910     1.5130     1.2400 ha         1 FZP       0.131000
     48 H13          3.6940     1.0340     2.0810 ha         1 FZP       0.117000
     49 H14         -1.0070    -1.8670    -1.7860 ha         1 FZP       0.131000
     50 H15          0.6380    -3.1370    -3.1110 ha         1 FZP       0.121000
     51 H16         -9.5300    -0.8400    -0.5020 h4         1 FZP       0.151000
     52 H17          2.9860    -3.2960    -2.3920 ha         1 FZP       0.149000
     53 H18          2.0730    -0.9560     1.1180 ha         1 FZP       0.115000
     54 H19          7.2680    -2.0380    -0.3420 hc         1 FZP       0.055700
     55 H20          6.2150    -1.7210     1.0740 hc         1 FZP       0.055700
     56 H21          6.1230    -4.1830     1.5400 hc         1 FZP       0.045700
     57 H22          7.1870    -4.4870     0.1470 hc         1 FZP       0.045700
     58 H23          7.7950    -3.5810     1.5480 hc         1 FZP       0.045700
     59 H24          4.1440    -1.7130     0.8180 hn         1 FZP       0.146000
     60 F1           6.6250     3.4910    -0.3690 f          1 FZP      -0.175000
@<TRIPOS>BOND
     1     1    13 2   
     2     1    14 1   
     3     1    15 1   
     4     2    11 ar  
     5     2    17 ar  
     6     2    60 1   
     7     3    15 1   
     8     3    29 ar  
     9     3    30 ar  
    10     4     6 ar  
    11     4    29 ar  
    12     4    31 1   
    13     5     9 1   
    14     5    10 ar  
    15     5    18 ar  
    16     6     7 ar  
    17     6    36 1   
    18     7    30 ar  
    19     7    37 1   
    20     8    31 1   
    21     8    33 2   
    22     8    34 1   
    23     9    34 1   
    24     9    38 1   
    25     9    39 1   
    26    10    11 ar  
    27    10    40 1   
    28    11    41 1   
    29    12    13 1   
    30    12    16 1   
    31    12    22 1   
    32    14    22 2   
    33    14    42 1   
    34    15    43 1   
    35    16    44 1   
    36    16    45 1   
    37    16    46 1   
    38    17    18 ar  
    39    17    47 1   
    40    18    48 1   
    41    19    20 ar  
    42    19    25 ar  
    43    19    31 1   
    44    20    21 ar  
    45    20    49 1   
    46    21    23 ar  
    47    21    50 1   
    48    22    51 1   
    49    23    24 ar  
    50    23    52 1   
    51    24    25 ar  
    52    24    32 1   
    53    25    53 1   
    54    26    27 1   
    55    26    32 1   
    56    26    35 2   
    57    27    28 1   
    58    27    54 1   
    59    27    55 1   
    60    28    56 1   
    61    28    57 1   
    62    28    58 1   
    63    32    59 1   
@<TRIPOS>SUBSTRUCTURE
     1 FZP         1 TEMP              0 ****  ****    0 ROOT
