@<TRIPOS>MOLECULE
FZQ
   46    47     1     0     0
SMALL
bcc


@<TRIPOS>ATOM
      1 O1S          3.6920    -2.3070    -0.1340 o          1 FZQ      -0.612800
      2 O2S          3.2880    -1.2380     2.0980 o          1 FZQ      -0.612800
      3 N            1.1200     3.2650    -0.3010 n8         1 FZQ      -0.882800
      4 CA           2.1620     2.2950    -0.4890 c3         1 FZQ       0.103500
      5 C            2.0170     1.0520     0.3930 c          1 FZQ       0.656100
      6 O            1.3870     1.0160     1.4170 o          1 FZQ      -0.527100
      7 CB           3.5370     2.9070    -0.2070 c3         1 FZQ       0.147400
      8 OG           3.7630     3.9360    -1.1340 oh         1 FZQ      -0.575800
      9 C1          -2.5560    -1.1820     0.5070 c5         1 FZQ       0.301500
     10 C2          -1.8710     0.9190    -0.6210 c          1 FZQ       0.869900
     11 C7          -2.9770    -2.0240    -0.7070 c5         1 FZQ       0.093100
     12 C3          -1.6620    -2.6700    -1.1910 c5         1 FZQ       0.072100
     13 C4          -2.6220     2.9590     0.2060 cc         1 FZQ       0.794500
     14 C8          -0.7500    -2.5780     0.0380 c5         1 FZQ       0.157100
     15 C5          -3.4180     2.3230     1.2070 cc         1 FZQ      -0.429600
     16 C9           0.6680    -2.2590    -0.3680 c3         1 FZQ       0.169400
     17 C6          -3.3690     0.9780     1.2420 cd         1 FZQ       0.088600
     18 N1          -2.6300     0.2640     0.3580 n          1 FZQ      -0.386000
     19 N3          -1.8950     2.2670    -0.6510 nd         1 FZQ      -0.799100
     20 N3S          2.7160    -0.0450    -0.0820 ns         1 FZQ      -0.693300
     21 O2          -1.2180     0.2570    -1.4160 o          1 FZQ      -0.665500
     22 O6          -3.8710    -3.0070    -0.2550 oh         1 FZQ      -0.598800
     23 O3          -1.8220    -4.0170    -1.5600 oh         1 FZQ      -0.593800
     24 O4          -1.2540    -1.5500     0.8600 os         1 FZQ      -0.371600
     25 O5           1.4220    -2.0410     0.8430 os         1 FZQ      -0.526500
     26 S            2.8940    -1.4800     0.7380 s6         1 FZQ       1.582100
     27 H1           0.2260     2.9080    -0.6220 hn         1 FZQ       0.368300
     28 H2           1.0130     3.4820     0.6830 hn         1 FZQ       0.368300
     29 H4           2.1480     1.9660    -1.5340 h1         1 FZQ       0.086700
     30 H5           3.5480     3.2760     0.8280 h1         1 FZQ       0.022700
     31 H6           4.3080     2.1300    -0.2740 h1         1 FZQ       0.022700
     32 H7           4.6520     4.2730    -0.9880 ho         1 FZQ       0.403000
     33 H8          -3.2440    -1.4130     1.3250 h2         1 FZQ       0.083700
     34 H9          -3.4380    -1.4100    -1.4870 h1         1 FZQ       0.079700
     35 H10         -1.2580    -2.0860    -2.0180 h1         1 FZQ       0.083700
     36 H11         -0.7740    -3.5310     0.5820 h1         1 FZQ       0.088700
     37 H12         -4.0120     2.8820     1.9140 ha         1 FZQ       0.158000
     38 H13          1.0900    -3.0950    -0.9280 h1         1 FZQ       0.067200
     39 H14          0.6910    -1.3590    -0.9830 h1         1 FZQ       0.067200
     40 H15         -3.9170     0.4090     1.9800 h4         1 FZQ       0.158000
     41 H16          3.1700    -0.0050    -0.9870 hn         1 FZQ       0.346500
     42 H17         -3.1270     4.8630     0.7570 hn         1 FZQ       0.451300
     43 H18         -2.0410     4.7430    -0.5770 hn         1 FZQ       0.451300
     44 H19         -3.6130    -3.8380    -0.6780 ho         1 FZQ       0.431000
     45 H20         -1.9850    -4.0640    -2.5070 ho         1 FZQ       0.421000
     46 N4          -2.5940     4.2870     0.1290 nv         1 FZQ      -0.917800
@<TRIPOS>BOND
     1     1    26 2   
     2     2    26 2   
     3     3     4 1   
     4     3    27 1   
     5     3    28 1   
     6     4     5 1   
     7     4     7 1   
     8     4    29 1   
     9     5     6 2   
    10     5    20 1   
    11     7     8 1   
    12     7    30 1   
    13     7    31 1   
    14     8    32 1   
    15     9    11 1   
    16     9    18 1   
    17     9    24 1   
    18     9    33 1   
    19    10    18 1   
    20    10    19 1   
    21    10    21 2   
    22    11    12 1   
    23    11    22 1   
    24    11    34 1   
    25    12    14 1   
    26    12    23 1   
    27    12    35 1   
    28    13    15 1   
    29    13    19 2   
    30    13    46 1   
    31    14    16 1   
    32    14    24 1   
    33    14    36 1   
    34    15    17 2   
    35    15    37 1   
    36    16    25 1   
    37    16    38 1   
    38    16    39 1   
    39    17    18 1   
    40    17    40 1   
    41    20    26 1   
    42    20    41 1   
    43    22    44 1   
    44    23    45 1   
    45    25    26 1   
    46    42    46 1   
    47    43    46 1   
@<TRIPOS>SUBSTRUCTURE
     1 FZQ         1 TEMP              0 ****  ****    0 ROOT
