@<TRIPOS>MOLECULE
FZQ
   46    47     1     0     0
SMALL
No Charge or Current Charge


@<TRIPOS>ATOM
      1 O1S          3.6010    -2.8880    -0.7540 o          1 FZQ      -0.542000
      2 O2S          3.9630    -1.9950     1.6130 o          1 FZQ      -0.542000
      3 N            1.4390     2.7140    -0.4590 n8         1 FZQ      -0.993200
      4 CA           2.7630     1.9750    -0.4690 c3         1 FZQ       0.103500
      5 C            2.8110     0.6810     0.4150 c          1 FZQ       0.589100
      6 O            2.5470     0.7000     1.6080 o          1 FZQ      -0.527100
      7 CB           3.9600     2.8920    -0.0720 c3         1 FZQ       0.170600
      8 OG           4.1450     3.9540    -1.0240 oh         1 FZQ      -0.638000
      9 C1          -2.3820    -0.8820     0.8320 c5         1 FZQ       0.324700
     10 C2          -2.0100     1.3700    -0.2890 c          1 FZQ       0.727400
     11 C7          -3.0390    -1.7820    -0.2850 c5         1 FZQ       0.116300
     12 C3          -1.7870    -2.2220    -1.1000 c5         1 FZQ       0.095300
     13 C4          -3.4600     3.1120     0.1490 cc         1 FZQ       0.794500
     14 C8          -0.7260    -2.3150     0.0420 c5         1 FZQ       0.180300
     15 C5          -4.2650     2.3370     0.9950 cc         1 FZQ      -0.479600
     16 C9           0.7420    -2.3810    -0.4490 c3         1 FZQ       0.192600
     17 C6          -3.9080     1.0280     1.2020 cd         1 FZQ       0.038600
     18 N1          -2.7730     0.5320     0.5660 n          1 FZQ      -0.319000
     19 N3          -2.4140     2.6930    -0.4650 nd         1 FZQ      -0.799100
     20 N3S          3.1360    -0.4620    -0.2510 ns         1 FZQ      -0.626300
     21 O2          -1.0230     1.0080    -0.9080 o          1 FZQ      -0.590000
     22 O6          -3.6670    -2.9640     0.2330 oh         1 FZQ      -0.721000
     23 O3          -2.0330    -3.4760    -1.7730 oh         1 FZQ      -0.716000
     24 O4          -0.9580    -1.1090     0.8010 os         1 FZQ      -0.418000
     25 O5           1.6220    -2.2260     0.6830 os         1 FZQ      -0.549700
     26 S            3.2140    -2.0080     0.3520 s6         1 FZQ       1.440500
     27 H1           0.6720     2.0700    -0.7190 hn         1 FZQ       0.423500
     28 H2           1.2020     2.9640     0.5080 hn         1 FZQ       0.423500
     29 H4           2.9440     1.6480    -1.5020 h1         1 FZQ       0.086700
     30 H5           3.7840     3.3040     0.9310 h1         1 FZQ       0.022700
     31 H6           4.8720     2.2820    -0.0210 h1         1 FZQ       0.022700
     32 H7           4.8490     4.5390    -0.6680 ho         1 FZQ       0.442000
     33 H8          -2.7790    -1.1470     1.8200 h2         1 FZQ       0.083700
     34 H9          -3.7410    -1.2140    -0.9120 h1         1 FZQ       0.079700
     35 H10         -1.5090    -1.4360    -1.8190 h1         1 FZQ       0.083700
     36 H11         -0.9170    -3.1810     0.6900 h1         1 FZQ       0.088700
     37 H12         -5.1340     2.7780     1.4690 ha         1 FZQ       0.208000
     38 H13          0.9100    -3.3420    -0.9550 h1         1 FZQ       0.067200
     39 H14          0.8900    -1.5770    -1.1830 h1         1 FZQ       0.067200
     40 H15         -4.4430     0.3200     1.8350 h4         1 FZQ       0.208000
     41 H16          3.3360    -0.4450    -1.2360 hn         1 FZQ       0.346500
     42 H17         -4.7680     4.5750     0.0010 hn         1 FZQ       0.506500
     43 H18         -3.3140     4.7560    -0.8800 hn         1 FZQ       0.506500
     44 H19         -3.3540    -3.6610    -0.4030 ho         1 FZQ       0.530000
     45 H20         -1.6240    -3.4260    -2.6720 ho         1 FZQ       0.520000
     46 N4          -3.7820     4.3670    -0.0740 nv         1 FZQ      -1.028200
@<TRIPOS>BOND
     1     1    26 2   
     2     2    26 2   
     3     3     4 1   
     4     3    27 1   
     5     3    28 1   
     6     4     5 1   
     7     4     7 1   
     8     4    29 1   
     9     5     6 2   
    10     5    20 1   
    11     7     8 1   
    12     7    30 1   
    13     7    31 1   
    14     8    32 1   
    15     9    11 1   
    16     9    18 1   
    17     9    24 1   
    18     9    33 1   
    19    10    18 1   
    20    10    19 1   
    21    10    21 2   
    22    11    12 1   
    23    11    22 1   
    24    11    34 1   
    25    12    14 1   
    26    12    23 1   
    27    12    35 1   
    28    13    15 1   
    29    13    19 2   
    30    13    46 1   
    31    14    16 1   
    32    14    24 1   
    33    14    36 1   
    34    15    17 2   
    35    15    37 1   
    36    16    25 1   
    37    16    38 1   
    38    16    39 1   
    39    17    18 1   
    40    17    40 1   
    41    20    26 1   
    42    20    41 1   
    43    22    44 1   
    44    23    45 1   
    45    25    26 1   
    46    42    46 1   
    47    43    46 1   
@<TRIPOS>SUBSTRUCTURE
     1 FZQ         1 TEMP              0 ****  ****    0 ROOT
