@<TRIPOS>MOLECULE
FZR
   45    48     1     0     0
SMALL
No Charge or Current Charge


@<TRIPOS>ATOM
      1 C10          1.2270    32.8260    11.1560 ca         1 FZR       0.198500
      2 C12          2.6690    33.1670    12.8940 cc         1 FZR      -0.020900
      3 C19          2.0910    37.6190    11.9970 c6         1 FZR       0.236500
      4 C20          3.2790    38.4190    12.5890 c6         1 FZR      -0.094400
      5 C22          1.7160    40.3780    13.0980 c6         1 FZR      -0.079400
      6 C24          0.7590    38.0470    12.6710 c6         1 FZR      -0.094400
      7 C17          1.6940    35.1460    11.5220 ca         1 FZR       0.475900
      8 C23          0.5240    39.5710    12.5250 c6         1 FZR      -0.070900
      9 C04         -1.6730    36.0250     7.0070 cc         1 FZR       0.201900
     10 C05         -0.8540    37.2230     8.6750 cd         1 FZR      -0.183000
     11 C06         -0.9720    35.9430     8.2310 cc         1 FZR       0.188000
     12 C08          0.2860    34.4490     9.8650 ca         1 FZR       0.449900
     13 C11          1.8790    33.8000    11.8690 ca         1 FZR      -0.280800
     14 C13          3.5110    33.7680    13.8760 cg         1 FZR       0.320700
     15 C15          2.4530    31.8040    12.7490 cd         1 FZR      -0.127100
     16 C21          3.0530    39.9450    12.4450 c6         1 FZR      -0.070900
     17 N02         -1.4730    38.0060     7.6930 na         1 FZR       0.129800
     18 N03         -1.9900    37.2540     6.6450 nd         1 FZR      -0.510800
     19 N07         -0.5620    34.7510     8.8120 nu         1 FZR      -0.899900
     20 N09          0.4130    33.1370    10.1340 nb         1 FZR      -0.307000
     21 N14          4.1900    34.2980    14.6640 n1         1 FZR      -0.478000
     22 N16          1.5590    31.5870    11.6710 na         1 FZR      -0.316400
     23 N18          2.3270    36.1810    12.2010 nu         1 FZR      -0.915100
     24 N25          0.8860    35.4700    10.5010 nb         1 FZR      -0.346000
     25 H1           2.0370    37.8490    10.9210 h1         1 FZR       0.077700
     26 H2           3.4110    38.1680    13.6510 hc         1 FZR       0.050450
     27 H3           4.2100    38.1360    12.0800 hc         1 FZR       0.050450
     28 H4           1.7720    40.2320    14.1860 hc         1 FZR       0.042700
     29 H5           1.5520    41.4520    12.9360 hc         1 FZR       0.042700
     30 H6          -0.0850    37.5040    12.2250 hc         1 FZR       0.050450
     31 H7           0.7750    37.7770    13.7360 hc         1 FZR       0.050450
     32 H8           0.3800    39.8240    11.4660 hc         1 FZR       0.040700
     33 H9          -0.4020    39.8570    13.0430 hc         1 FZR       0.040700
     34 H10         -1.1280    39.8890     6.8120 h1         1 FZR       0.054367
     35 H11         -2.6690    39.7400     7.7110 h1         1 FZR       0.054367
     36 H12         -1.1240    39.8790     8.6010 h1         1 FZR       0.054367
     37 H14         -0.4070    37.6320     9.5710 h4         1 FZR       0.176000
     38 H15          2.8680    30.9830    13.3310 h4         1 FZR       0.227000
     39 H16          3.8870    40.4910    12.9060 hc         1 FZR       0.040700
     40 H17          3.0500    40.2200    11.3810 hc         1 FZR       0.040700
     41 H18         -0.9020    33.9130     8.3380 hn         1 FZR       0.516000
     42 H19          1.2180    30.6930    11.3320 hn         1 FZR       0.365000
     43 H20          2.9270    35.8950    12.9710 hn         1 FZR       0.502000
     44 H13         -1.9630    35.2040     6.3650 h4         1 FZR       0.037100
     45 C01         -1.6070    39.4690     7.7050 c3         1 FZR       0.076900
@<TRIPOS>BOND
     1     1    13 ar  
     2     1    20 ar  
     3     1    22 1   
     4     2    13 1   
     5     2    14 1   
     6     2    15 2   
     7     3     4 1   
     8     3     6 1   
     9     3    23 1   
    10     3    25 1   
    11     4    16 1   
    12     4    26 1   
    13     4    27 1   
    14     5     8 1   
    15     5    16 1   
    16     5    28 1   
    17     5    29 1   
    18     6     8 1   
    19     6    30 1   
    20     6    31 1   
    21     7    13 ar  
    22     7    23 1   
    23     7    24 ar  
    24     8    32 1   
    25     8    33 1   
    26     9    11 1   
    27     9    18 2   
    28     9    44 1   
    29    10    11 2   
    30    10    17 1   
    31    10    37 1   
    32    11    19 1   
    33    12    19 1   
    34    12    20 ar  
    35    12    24 ar  
    36    14    21 3   
    37    15    22 1   
    38    15    38 1   
    39    16    39 1   
    40    16    40 1   
    41    17    18 1   
    42    17    45 1   
    43    19    41 1   
    44    22    42 1   
    45    23    43 1   
    46    34    45 1   
    47    35    45 1   
    48    36    45 1   
@<TRIPOS>SUBSTRUCTURE
     1 FZR         1 TEMP              0 ****  ****    0 ROOT
