@<TRIPOS>MOLECULE
FZR
   45    48     1     0     0
SMALL
abcg2


@<TRIPOS>ATOM
      1 C10          1.3250    32.8630    11.1110 ca         1 FZR       0.198500
      2 C12          2.6120    33.0940    12.9650 cc         1 FZR      -0.020900
      3 C19          1.9490    37.5870    11.9590 c6         1 FZR       0.236500
      4 C20          3.1390    38.4330    12.4010 c6         1 FZR      -0.094400
      5 C22          1.6030    40.4030    12.7520 c6         1 FZR      -0.079400
      6 C24          0.6610    38.0720    12.6240 c6         1 FZR      -0.094400
      7 C17          1.6680    35.1620    11.5790 ca         1 FZR       0.475900
      8 C23          0.4140    39.5480    12.3280 c6         1 FZR      -0.070900
      9 C04         -1.5630    36.1730     7.1560 cc         1 FZR       0.201900
     10 C05         -0.6370    37.2110     8.8620 cd         1 FZR      -0.183000
     11 C06         -0.8110    35.9500     8.3250 cc         1 FZR       0.188000
     12 C08          0.3910    34.3960     9.8230 ca         1 FZR       0.449900
     13 C11          1.9070    33.8170    11.9430 ca         1 FZR      -0.280800
     14 C13          3.3370    33.6160    14.0540 cg         1 FZR       0.320700
     15 C15          2.4300    31.7590    12.7030 cd         1 FZR      -0.127100
     16 C21          2.8920    39.9090    12.1050 c6         1 FZR      -0.070900
     17 N02         -1.2600    38.0670     8.0210 na         1 FZR       0.129800
     18 N03         -1.8250    37.4580     6.9950 nd         1 FZR      -0.510800
     19 N07         -0.4000    34.7000     8.7610 nu         1 FZR      -0.899900
     20 N09          0.5710    33.0960    10.0450 nb         1 FZR      -0.307000
     21 N14          3.9220    34.0680    14.9410 n1         1 FZR      -0.478000
     22 N16          1.6630    31.6320    11.5910 na         1 FZR      -0.316400
     23 N18          2.2110    36.1880    12.2430 nu         1 FZR      -0.915100
     24 N25          0.8960    35.4140    10.5240 nb         1 FZR      -0.346000
     25 H1           1.8460    37.6870    10.8750 h1         1 FZR       0.077700
     26 H2           3.3000    38.2980    13.4770 hc         1 FZR       0.050450
     27 H3           4.0450    38.0900    11.8950 hc         1 FZR       0.050450
     28 H4           1.7070    40.3630    13.8420 hc         1 FZR       0.042700
     29 H5           1.4290    41.4500    12.4930 hc         1 FZR       0.042700
     30 H6          -0.1820    37.4660    12.2830 hc         1 FZR       0.050450
     31 H7           0.7450    37.9210    13.7060 hc         1 FZR       0.050450
     32 H8           0.2420    39.6770    11.2530 hc         1 FZR       0.040700
     33 H9          -0.4960    39.8820    12.8290 hc         1 FZR       0.040700
     34 H10         -1.1080    40.0030     7.2670 h1         1 FZR       0.054367
     35 H11         -2.4080    39.7660     8.4500 h1         1 FZR       0.054367
     36 H12         -0.7220    39.8180     8.9820 h1         1 FZR       0.054367
     37 H14         -0.1340    37.5510     9.7480 h4         1 FZR       0.176000
     38 H15          2.7940    30.8990    13.2390 h4         1 FZR       0.227000
     39 H16          3.7440    40.5000    12.4480 hc         1 FZR       0.040700
     40 H17          2.8310    40.0520    11.0210 hc         1 FZR       0.040700
     41 H18         -0.7490    33.9070     8.2460 hn         1 FZR       0.516000
     42 H19          1.3770    30.7540    11.1850 hn         1 FZR       0.365000
     43 H20          2.7360    35.9880    13.0790 hn         1 FZR       0.502000
     44 H13         -1.9100    35.4400     6.4420 h4         1 FZR       0.037100
     45 C01         -1.3870    39.4940     8.1870 c3         1 FZR       0.076900
@<TRIPOS>BOND
     1     1    13 ar  
     2     1    20 ar  
     3     1    22 1   
     4     2    13 1   
     5     2    14 1   
     6     2    15 2   
     7     3     4 1   
     8     3     6 1   
     9     3    23 1   
    10     3    25 1   
    11     4    16 1   
    12     4    26 1   
    13     4    27 1   
    14     5     8 1   
    15     5    16 1   
    16     5    28 1   
    17     5    29 1   
    18     6     8 1   
    19     6    30 1   
    20     6    31 1   
    21     7    13 ar  
    22     7    23 1   
    23     7    24 ar  
    24     8    32 1   
    25     8    33 1   
    26     9    11 1   
    27     9    18 2   
    28     9    44 1   
    29    10    11 2   
    30    10    17 1   
    31    10    37 1   
    32    11    19 1   
    33    12    19 1   
    34    12    20 ar  
    35    12    24 ar  
    36    14    21 3   
    37    15    22 1   
    38    15    38 1   
    39    16    39 1   
    40    16    40 1   
    41    17    18 1   
    42    17    45 1   
    43    19    41 1   
    44    22    42 1   
    45    23    43 1   
    46    34    45 1   
    47    35    45 1   
    48    36    45 1   
@<TRIPOS>SUBSTRUCTURE
     1 FZR         1 TEMP              0 ****  ****    0 ROOT
