@<TRIPOS>MOLECULE
FZS
   42    43     1     0     0
SMALL
bcc


@<TRIPOS>ATOM
      1 O1          -0.0050     3.0910    -2.5740 oh         1 FZS      -0.578800
      2 N            0.8070     1.6600    -0.3310 ns         1 FZS      -0.545900
      3 CA          -0.1650     2.7200    -0.2140 c3         1 FZS       0.124700
      4 C           -0.0200     3.7430    -1.3260 c3         1 FZS       0.131400
      5 CB          -1.5790     2.1210    -0.0780 c6         1 FZS       0.243600
      6 CAJ          1.3990    -2.4690     0.3680 cc         1 FZS      -0.134400
      7 CAL         -3.4210     0.3340    -0.9290 c6         1 FZS       0.051900
      8 CAX         -2.8220    -0.5700     0.0970 ce         1 FZS      -0.201800
      9 CAZ          2.2370    -0.1010     0.4430 cf         1 FZS       0.324300
     10 CBA         -2.0150     0.0920     1.1430 ce         1 FZS       0.432600
     11 CBB         -0.0090    -2.0100    -1.5670 cc         1 FZS       0.701300
     12 CBC          1.4430    -1.2070    -0.1170 cd         1 FZS       0.362000
     13 NAM          3.4470    -0.3790     0.7260 n2         1 FZS      -0.428200
     14 NAN          0.6620    -0.9610    -1.2150 nd         1 FZS      -0.724000
     15 NBI         -1.5470     1.2700     1.0660 n2         1 FZS      -0.602900
     16 OAD         -2.8300    -1.0090     3.0480 o          1 FZS      -0.795800
     17 OAE          1.7370     1.8360     1.7400 o          1 FZS      -0.563100
     18 OAI         -0.6180    -0.7360     2.8570 o          1 FZS      -0.795800
     19 OAR          4.1630     0.6350     1.2550 os         1 FZS      -0.155300
     20 SAT         -2.1220     1.3620    -1.6680 ss         1 FZS      -0.443200
     21 SAU          0.3090    -3.4120    -0.5830 ss         1 FZS      -0.273300
     22 H1          -0.1960     3.7360    -3.2600 ho         1 FZS       0.388000
     23 H2           0.6510     0.9860    -1.0770 hn         1 FZS       0.357500
     24 H3           0.0160     3.2480     0.7230 h1         1 FZS       0.095700
     25 H4           0.9070     4.3040    -1.1600 h1         1 FZS       0.018700
     26 H5          -0.8480     4.4570    -1.2440 h1         1 FZS       0.018700
     27 H6          -2.2670     2.9480     0.1340 h2         1 FZS       0.063700
     28 H7           5.6050    -0.6120     2.1000 h1         1 FZS       0.030033
     29 H8           5.9740    -0.0260     0.4600 h1         1 FZS       0.030033
     30 H9           6.0340     1.0910     1.8380 h1         1 FZS       0.030033
     31 H13         -3.8880    -0.2290    -1.7370 h1         1 FZS       0.058700
     32 H14         -4.1840     0.9780    -0.4850 h1         1 FZS       0.058700
     33 H16         -1.1810    -1.1440    -2.9190 hn         1 FZS       0.416800
     34 H17         -1.5440    -2.7700    -2.6550 hn         1 FZS       0.416800
     35 CAK         -2.9990    -1.8900     0.0670 c2         1 FZS      -0.180000
     36 CAV         -1.7900    -0.6290     2.4750 c          1 FZS       0.847300
     37 NAC         -0.8390    -2.0520    -2.6350 nv         1 FZS      -0.923500
     38 CAW          1.5620     1.2360     0.6960 c          1 FZS       0.592800
     39 H10          1.8960    -2.8810     1.2310 h4         1 FZS       0.191000
     40 CAA          5.5140     0.2340     1.4160 c3         1 FZS       0.134700
     41 H11         -3.5790    -2.3560    -0.7200 ha         1 FZS       0.112500
     42 H12         -2.5740    -2.5500     0.8100 ha         1 FZS       0.112500
@<TRIPOS>BOND
     1     1     4 1   
     2     1    22 1   
     3     2     3 1   
     4     2    23 1   
     5     2    38 1   
     6     3     4 1   
     7     3     5 1   
     8     3    24 1   
     9     4    25 1   
    10     4    26 1   
    11     5    15 1   
    12     5    20 1   
    13     5    27 1   
    14     6    12 2   
    15     6    21 1   
    16     6    39 1   
    17     7     8 1   
    18     7    20 1   
    19     7    31 1   
    20     7    32 1   
    21     8    10 1   
    22     8    35 2   
    23     9    12 1   
    24     9    13 2   
    25     9    38 1   
    26    10    15 2   
    27    10    36 1   
    28    11    14 2   
    29    11    21 1   
    30    11    37 1   
    31    12    14 1   
    32    13    19 1   
    33    16    36 1   
    34    17    38 2   
    35    18    36 1   
    36    19    40 1   
    37    28    40 1   
    38    29    40 1   
    39    30    40 1   
    40    33    37 1   
    41    34    37 1   
    42    35    41 1   
    43    35    42 1   
@<TRIPOS>SUBSTRUCTURE
     1 FZS         1 TEMP              0 ****  ****    0 ROOT
