@<TRIPOS>MOLECULE
FZS
   42    43     1     0     0
SMALL
No Charge or Current Charge


@<TRIPOS>ATOM
      1 O1           0.1340     3.6320    -2.1830 oh         1 FZS      -0.641000
      2 N            0.3820     1.6450    -0.0660 ns         1 FZS      -0.478900
      3 CA          -0.5850     2.7510     0.0400 c3         1 FZS       0.124700
      4 C           -0.1890     3.9840    -0.8270 c3         1 FZS       0.154600
      5 CB          -2.0560     2.2370    -0.1690 c6         1 FZS       0.291500
      6 CAJ          1.9780    -2.2660     0.1930 cc         1 FZS      -0.196000
      7 CAL         -3.6320     0.1940    -1.1880 c6         1 FZS       0.099800
      8 CAX         -3.2070    -0.5840     0.0600 ce         1 FZS      -0.201800
      9 CAZ          2.3570     0.2350     0.4550 cf         1 FZS       0.324300
     10 CBA         -2.3500     0.1760     1.0290 ce         1 FZS       0.432600
     11 CBB          0.3700    -2.0340    -1.5500 cc         1 FZS       0.701300
     12 CBC          1.7320    -0.9570    -0.1870 cd         1 FZS       0.296700
     13 NAM          3.5150     0.1810     1.0700 n2         1 FZS      -0.329700
     14 NAN          0.7850    -0.8490    -1.2120 nd         1 FZS      -0.724000
     15 NBI         -2.4730     1.4820     1.0230 n2         1 FZS      -0.602900
     16 OAD         -1.1910    -1.7100     2.0050 o          1 FZS      -0.690500
     17 OAE          2.0030     2.5050     1.2490 o          1 FZS      -0.563100
     18 OAI         -0.7390     0.2060     2.8270 o          1 FZS      -0.690500
     19 OAR          4.4910    -0.6400     0.4640 os         1 FZS      -0.277000
     20 SAT         -2.2420     1.2670    -1.7360 ss         1 FZS      -0.539000
     21 SAU          1.0400    -3.4070    -0.7340 ss         1 FZS      -0.128400
     22 H1           0.3780     4.4620    -2.6450 ho         1 FZS       0.427000
     23 H2           0.1310     0.8620    -0.6670 hn         1 FZS       0.357500
     24 H3          -0.5520     3.1110     1.0770 h1         1 FZS       0.095700
     25 H4           0.6800     4.4660    -0.3620 h1         1 FZS       0.018700
     26 H5          -1.0110     4.7120    -0.8070 h1         1 FZS       0.018700
     27 H6          -2.7210     3.1100    -0.2610 h2         1 FZS       0.063700
     28 H7           6.1100     0.3990     1.2980 h1         1 FZS       0.030033
     29 H8           5.5310    -0.9920     2.2500 h1         1 FZS       0.030033
     30 H9           6.4640    -1.2580     0.7610 h1         1 FZS       0.030033
     31 H13         -3.8910    -0.4880    -2.0110 h1         1 FZS       0.058700
     32 H14         -4.5060     0.8250    -0.9700 h1         1 FZS       0.058700
     33 H16         -1.0700    -1.2260    -2.6150 hn         1 FZS       0.472000
     34 H17         -1.1570    -2.9350    -2.4750 hn         1 FZS       0.472000
     35 CAK         -3.6070    -1.8730     0.2000 c2         1 FZS      -0.280000
     36 CAV         -1.3630    -0.4950     2.0310 c          1 FZS       0.636700
     37 NAC         -0.5830    -2.1020    -2.4780 nv         1 FZS      -1.033900
     38 CAW          1.5940     1.5500     0.5900 c          1 FZS       0.525800
     39 H10          2.6460    -2.6230     0.9660 h4         1 FZS       0.173000
     40 CAA          5.7060    -0.6190     1.2330 c3         1 FZS       0.157900
     41 H11         -4.2270    -2.3640    -0.5510 ha         1 FZS       0.162500
     42 H12         -3.3510    -2.4800     1.0680 ha         1 FZS       0.162500
@<TRIPOS>BOND
     1     1     4 1   
     2     1    22 1   
     3     2     3 1   
     4     2    23 1   
     5     2    38 1   
     6     3     4 1   
     7     3     5 1   
     8     3    24 1   
     9     4    25 1   
    10     4    26 1   
    11     5    15 1   
    12     5    20 1   
    13     5    27 1   
    14     6    12 2   
    15     6    21 1   
    16     6    39 1   
    17     7     8 1   
    18     7    20 1   
    19     7    31 1   
    20     7    32 1   
    21     8    10 1   
    22     8    35 2   
    23     9    12 1   
    24     9    13 2   
    25     9    38 1   
    26    10    15 2   
    27    10    36 1   
    28    11    14 2   
    29    11    21 1   
    30    11    37 1   
    31    12    14 1   
    32    13    19 1   
    33    16    36 1   
    34    17    38 2   
    35    18    36 1   
    36    19    40 1   
    37    28    40 1   
    38    29    40 1   
    39    30    40 1   
    40    33    37 1   
    41    34    37 1   
    42    35    41 1   
    43    35    42 1   
@<TRIPOS>SUBSTRUCTURE
     1 FZS         1 TEMP              0 ****  ****    0 ROOT
