@<TRIPOS>MOLECULE
FZT
   48    49     1     0     0
SMALL
No Charge or Current Charge


@<TRIPOS>ATOM
      1 C3U          5.4730    -2.2650     0.5370 c3         1 FZT       0.082300
      2 N3           4.0950    -1.8330     0.1750 n          1 FZT      -0.371400
      3 C4           3.2290    -2.7780    -0.3910 c          1 FZT       0.589200
      4 O4           3.5470    -3.9390    -0.6020 o          1 FZT      -0.530000
      5 C5           1.8990    -2.2710    -0.7120 cc         1 FZT      -0.368200
      6 C6           1.5190    -0.9760    -0.4750 cd         1 FZT       0.001600
      7 N1           2.4280    -0.0900     0.0920 n          1 FZT      -0.311000
      8 C1           2.0390     1.3220     0.3560 c5         1 FZT       0.332700
      9 O6           0.6680     1.4200     0.7880 os         1 FZT      -0.426000
     10 C7           0.1260     2.6900     0.3220 c5         1 FZT       0.171300
     11 C8          -1.1920     2.4280    -0.4520 c3         1 FZT       0.181600
     12 O5          -2.2110     2.0600     0.4960 os         1 FZT      -0.540700
     13 S           -3.7030     1.7230    -0.1040 s6         1 FZT       1.437500
     14 O1S         -4.6700     1.7410     0.9980 o          1 FZT      -0.533000
     15 O2S         -3.9260     2.5030    -1.3240 o          1 FZT      -0.533000
     16 N3S         -3.4410     0.1510    -0.5620 ns         1 FZT      -0.631300
     17 C           -3.2480    -0.9290     0.2430 c          1 FZT       0.623100
     18 O           -3.1990    -0.8470     1.4620 o          1 FZT      -0.501100
     19 CA          -3.0870    -2.2950    -0.5100 c3         1 FZT       0.085500
     20 N           -1.7150    -2.9190    -0.4600 n8         1 FZT      -0.994200
     21 CB          -4.1690    -3.3050    -0.0330 c3         1 FZT       0.123600
     22 OG          -4.0170    -4.5630    -0.7170 oh         1 FZT      -0.664000
     23 C3           1.2520     3.3440    -0.5620 c5         1 FZT       0.108300
     24 O3           2.1060     4.2250     0.1780 oh         1 FZT      -0.698000
     25 C2           2.0590     2.0920    -1.0050 c5         1 FZT       0.079300
     26 O2           3.3690     2.4630    -1.4820 oh         1 FZT      -0.688000
     27 C9           3.7290    -0.5020     0.4440 c          1 FZT       0.624000
     28 O7           4.5190     0.2750     0.9650 o          1 FZT      -0.549000
     29 H1           5.7810    -3.1470    -0.0390 h1         1 FZT       0.057700
     30 H2           6.1950    -1.4660     0.3260 h1         1 FZT       0.057700
     31 H3           5.5120    -2.5080     1.6070 h1         1 FZT       0.057700
     32 H4           1.2190    -2.9940    -1.1480 ha         1 FZT       0.243000
     33 H5           0.5340    -0.5670    -0.6930 h4         1 FZT       0.198000
     34 H6           2.7120     1.7720     1.0980 h2         1 FZT       0.129700
     35 H7          -0.1030     3.3280     1.1860 h1         1 FZT       0.112700
     36 H8          -1.4710     3.3490    -0.9840 h1         1 FZT       0.052200
     37 H9          -1.0270     1.6360    -1.1950 h1         1 FZT       0.052200
     38 H10         -3.4560     0.0500    -1.5610 hn         1 FZT       0.345500
     39 H11         -3.3050    -2.0920    -1.5680 h1         1 FZT       0.080700
     40 H12         -1.4580    -3.0800     0.5220 hn         1 FZT       0.422500
     41 H13         -1.8180    -3.8780    -0.8210 hn         1 FZT       0.422500
     42 H15         -4.0740    -3.4530     1.0520 h1         1 FZT       0.035200
     43 H16         -5.1640    -2.8820    -0.2250 h1         1 FZT       0.035200
     44 H17         -4.7290    -5.1600    -0.3910 ho         1 FZT       0.458000
     45 H18          0.8310     3.8700    -1.4310 h1         1 FZT       0.052700
     46 H19          2.9890     4.1190    -0.2590 ho         1 FZT       0.527000
     47 H20          1.5100     1.5380    -1.7790 h1         1 FZT       0.046700
     48 H21          3.7630     1.6710    -1.9210 ho         1 FZT       0.515000
@<TRIPOS>BOND
     1     1     2 1   
     2     1    29 1   
     3     1    30 1   
     4     1    31 1   
     5     2     3 1   
     6     2    27 1   
     7     3     4 2   
     8     3     5 1   
     9     5     6 2   
    10     5    32 1   
    11     6     7 1   
    12     6    33 1   
    13     7     8 1   
    14     7    27 1   
    15     8     9 1   
    16     8    25 1   
    17     8    34 1   
    18     9    10 1   
    19    10    11 1   
    20    10    23 1   
    21    10    35 1   
    22    11    12 1   
    23    11    36 1   
    24    11    37 1   
    25    12    13 1   
    26    13    14 2   
    27    13    15 2   
    28    13    16 1   
    29    16    17 1   
    30    16    38 1   
    31    17    18 2   
    32    17    19 1   
    33    19    20 1   
    34    19    21 1   
    35    19    39 1   
    36    20    40 1   
    37    20    41 1   
    38    21    22 1   
    39    21    42 1   
    40    21    43 1   
    41    22    44 1   
    42    23    24 1   
    43    23    25 1   
    44    23    45 1   
    45    24    46 1   
    46    25    26 1   
    47    25    47 1   
    48    26    48 1   
    49    27    28 2   
@<TRIPOS>SUBSTRUCTURE
     1 FZT         1 TEMP              0 ****  ****    0 ROOT
