@<TRIPOS>MOLECULE
FZT
   48    49     1     0     0
SMALL
abcg2


@<TRIPOS>ATOM
      1 C3U          5.1210    -2.2210     1.0950 c3         1 FZT       0.082300
      2 N3           3.8130    -1.7620     0.6390 n          1 FZT      -0.371400
      3 C4           2.8350    -2.7050     0.3130 c          1 FZT       0.589200
      4 O4           3.0580    -3.8990     0.3990 o          1 FZT      -0.530000
      5 C5           1.5770    -2.1480    -0.1160 cc         1 FZT      -0.368200
      6 C6           1.4240    -0.8210    -0.1800 cd         1 FZT       0.001600
      7 N1           2.4180     0.0550     0.1480 n          1 FZT      -0.311000
      8 C1           2.1680     1.4820     0.0710 c5         1 FZT       0.332700
      9 O6           1.0030     1.7800     0.7970 os         1 FZT      -0.426000
     10 C7           0.2620     2.8110     0.1470 c5         1 FZT       0.171300
     11 C8          -1.0880     2.2980    -0.3080 c3         1 FZT       0.181600
     12 O5          -1.7480     1.7770     0.8600 os         1 FZT      -0.540700
     13 S           -3.2420     1.2660     0.7390 s6         1 FZT       1.437500
     14 O1S         -3.6040     0.8890     2.0750 o          1 FZT      -0.533000
     15 O2S         -4.0350     2.1950    -0.0250 o          1 FZT      -0.533000
     16 N3S         -3.1180    -0.0810    -0.2310 ns         1 FZT      -0.631300
     17 C           -2.4630    -1.2420     0.1330 c          1 FZT       0.623100
     18 O           -1.8040    -1.3180     1.1390 o          1 FZT      -0.501100
     19 CA          -2.6910    -2.3930    -0.8290 c3         1 FZT       0.085500
     20 N           -1.5980    -3.3300    -0.7250 n8         1 FZT      -0.994200
     21 CB          -4.0810    -2.9820    -0.5480 c3         1 FZT       0.123600
     22 OG          -4.3090    -3.9900    -1.5010 oh         1 FZT      -0.664000
     23 C3           1.1070     3.2710    -1.0370 c5         1 FZT       0.108300
     24 O3           1.9530     4.3000    -0.6000 oh         1 FZT      -0.698000
     25 C2           1.9040     1.9970    -1.3420 c5         1 FZT       0.079300
     26 O2           3.1110     2.2030    -2.0070 oh         1 FZT      -0.688000
     27 C9           3.6460    -0.3950     0.5960 c          1 FZT       0.624000
     28 O7           4.5320     0.3630     0.9290 o          1 FZT      -0.549000
     29 H1           5.1720    -3.2970     0.9810 h1         1 FZT       0.057700
     30 H2           5.9100    -1.7650     0.5030 h1         1 FZT       0.057700
     31 H3           5.2730    -1.9700     2.1430 h1         1 FZT       0.057700
     32 H4           0.7510    -2.7990    -0.3720 ha         1 FZT       0.243000
     33 H5           0.4870    -0.3870    -0.4930 h4         1 FZT       0.198000
     34 H6           3.0410     1.9810     0.4940 h2         1 FZT       0.129700
     35 H7           0.1050     3.6320     0.8530 h1         1 FZT       0.112700
     36 H8          -1.6610     3.1250    -0.7320 h1         1 FZT       0.052200
     37 H9          -0.9980     1.5120    -1.0640 h1         1 FZT       0.052200
     38 H10         -3.6030    -0.0250    -1.1190 hn         1 FZT       0.345500
     39 H11         -2.6970    -1.9890    -1.8480 h1         1 FZT       0.080700
     40 H12         -1.5870    -3.7580     0.1940 hn         1 FZT       0.422500
     41 H13         -1.7450    -4.0810    -1.3870 hn         1 FZT       0.422500
     42 H15         -4.0940    -3.3760     0.4760 h1         1 FZT       0.035200
     43 H16         -4.8440    -2.1950    -0.6030 h1         1 FZT       0.035200
     44 H17         -5.1210    -4.4470    -1.2650 ho         1 FZT       0.458000
     45 H18          0.4910     3.5850    -1.8900 h1         1 FZT       0.052700
     46 H19          2.6830     4.3730    -1.2250 ho         1 FZT       0.527000
     47 H20          1.2590     1.2940    -1.8840 h1         1 FZT       0.046700
     48 H21          2.9470     2.2190    -2.9550 ho         1 FZT       0.515000
@<TRIPOS>BOND
     1     1     2 1   
     2     1    29 1   
     3     1    30 1   
     4     1    31 1   
     5     2     3 1   
     6     2    27 1   
     7     3     4 2   
     8     3     5 1   
     9     5     6 2   
    10     5    32 1   
    11     6     7 1   
    12     6    33 1   
    13     7     8 1   
    14     7    27 1   
    15     8     9 1   
    16     8    25 1   
    17     8    34 1   
    18     9    10 1   
    19    10    11 1   
    20    10    23 1   
    21    10    35 1   
    22    11    12 1   
    23    11    36 1   
    24    11    37 1   
    25    12    13 1   
    26    13    14 2   
    27    13    15 2   
    28    13    16 1   
    29    16    17 1   
    30    16    38 1   
    31    17    18 2   
    32    17    19 1   
    33    19    20 1   
    34    19    21 1   
    35    19    39 1   
    36    20    40 1   
    37    20    41 1   
    38    21    22 1   
    39    21    42 1   
    40    21    43 1   
    41    22    44 1   
    42    23    24 1   
    43    23    25 1   
    44    23    45 1   
    45    24    46 1   
    46    25    26 1   
    47    25    47 1   
    48    26    48 1   
    49    27    28 2   
@<TRIPOS>SUBSTRUCTURE
     1 FZT         1 TEMP              0 ****  ****    0 ROOT
