@<TRIPOS>MOLECULE
FZU
   24    24     1     0     0
SMALL
No Charge or Current Charge


@<TRIPOS>ATOM
      1 C1          19.1810    -6.0690    17.0280 c3         1 FZU       0.188600
      2 O1          19.4150    -6.4880    15.6610 oh         1 FZU      -0.714000
      3 C2          19.5920    -4.5710    17.2690 c6         1 FZU       0.401000
      4 O2          18.9260    -3.7900    16.2730 oh         1 FZU      -0.716000
      5 C3          21.1610    -4.3650    17.2170 c6         1 FZU       0.130300
      6 O3          21.8970    -5.2250    18.1200 oh         1 FZU      -0.710000
      7 C4          21.4990    -2.8920    17.5990 c6         1 FZU       0.129300
      8 O4          22.9250    -2.7080    17.6810 oh         1 FZU      -0.726000
      9 C5          20.8500    -2.5030    18.9640 c6         1 FZU       0.092300
     10 O5          21.1300    -1.1180    19.2650 oh         1 FZU      -0.727000
     11 C6          19.3210    -2.7910    18.9220 c6         1 FZU       0.132600
     12 O6          19.0750    -4.1760    18.5620 os         1 FZU      -0.456000
     13 H1          18.1170    -6.1780    17.2800 h1         1 FZU       0.047200
     14 H2          19.7430    -6.7030    17.7260 h1         1 FZU       0.047200
     15 H3          19.2270    -7.4570    15.6210 ho         1 FZU       0.509000
     16 H4          18.8780    -4.4100    15.5080 ho         1 FZU       0.508000
     17 H5          21.4950    -4.5380    16.1820 h1         1 FZU       0.075700
     18 H6          22.7350    -4.7210    18.2750 ho         1 FZU       0.524000
     19 H7          21.0850    -2.2320    16.8220 h1         1 FZU       0.043700
     20 H8          23.0330    -1.8350    18.1340 ho         1 FZU       0.528000
     21 H9          21.2820    -3.1450    19.7480 h1         1 FZU       0.064700
     22 H10         20.7960    -0.9390    20.1770 ho         1 FZU       0.514000
     23 H11         18.8240    -2.1240    18.2030 h1         1 FZU       0.056700
     24 H12         18.8800    -2.6050    19.9120 h1         1 FZU       0.056700
@<TRIPOS>BOND
     1     1     2 1   
     2     1     3 1   
     3     1    13 1   
     4     1    14 1   
     5     2    15 1   
     6     3     4 1   
     7     3     5 1   
     8     3    12 1   
     9     4    16 1   
    10     5     6 1   
    11     5     7 1   
    12     5    17 1   
    13     6    18 1   
    14     7     8 1   
    15     7     9 1   
    16     7    19 1   
    17     8    20 1   
    18     9    10 1   
    19     9    11 1   
    20     9    21 1   
    21    10    22 1   
    22    11    12 1   
    23    11    23 1   
    24    11    24 1   
@<TRIPOS>SUBSTRUCTURE
     1 FZU         1 TEMP              0 ****  ****    0 ROOT
