@<TRIPOS>MOLECULE
FZU
   24    24     1     0     0
SMALL
abcg2


@<TRIPOS>ATOM
      1 C1          19.1760    -6.0720    17.1540 c3         1 FZU       0.188600
      2 O1          19.7000    -6.5930    15.9600 oh         1 FZU      -0.714000
      3 C2          19.5440    -4.5930    17.2490 c6         1 FZU       0.401000
      4 O2          18.8780    -3.9510    16.2020 oh         1 FZU      -0.716000
      5 C3          21.0660    -4.3570    17.1690 c6         1 FZU       0.130300
      6 O3          21.6850    -5.2590    18.0500 oh         1 FZU      -0.710000
      7 C4          21.4150    -2.9150    17.5470 c6         1 FZU       0.129300
      8 O4          22.8180    -2.8160    17.5320 oh         1 FZU      -0.726000
      9 C5          20.8120    -2.5670    18.8980 c6         1 FZU       0.092300
     10 O5          21.0700    -1.2040    19.1470 oh         1 FZU      -0.727000
     11 C6          19.3130    -2.8470    18.8520 c6         1 FZU       0.132600
     12 O6          19.0510    -4.1890    18.5030 os         1 FZU      -0.456000
     13 H1          18.0790    -6.1470    17.1850 h1         1 FZU       0.047200
     14 H2          19.5580    -6.5930    18.0360 h1         1 FZU       0.047200
     15 H3          19.6220    -7.5500    15.9910 ho         1 FZU       0.509000
     16 H4          19.2960    -3.1180    15.9590 ho         1 FZU       0.508000
     17 H5          21.3890    -4.5340    16.1340 h1         1 FZU       0.075700
     18 H6          22.6140    -5.0130    18.1140 ho         1 FZU       0.524000
     19 H7          20.9820    -2.2280    16.8010 h1         1 FZU       0.043700
     20 H8          23.0670    -1.9660    17.9110 ho         1 FZU       0.528000
     21 H9          21.2720    -3.2020    19.6670 h1         1 FZU       0.064700
     22 H10         20.9610    -1.0360    20.0880 ho         1 FZU       0.514000
     23 H11         18.8290    -2.1430    18.1630 h1         1 FZU       0.056700
     24 H12         18.8680    -2.6900    19.8370 h1         1 FZU       0.056700
@<TRIPOS>BOND
     1     1     2 1   
     2     1     3 1   
     3     1    13 1   
     4     1    14 1   
     5     2    15 1   
     6     3     4 1   
     7     3     5 1   
     8     3    12 1   
     9     4    16 1   
    10     5     6 1   
    11     5     7 1   
    12     5    17 1   
    13     6    18 1   
    14     7     8 1   
    15     7     9 1   
    16     7    19 1   
    17     8    20 1   
    18     9    10 1   
    19     9    11 1   
    20     9    21 1   
    21    10    22 1   
    22    11    12 1   
    23    11    23 1   
    24    11    24 1   
@<TRIPOS>SUBSTRUCTURE
     1 FZU         1 TEMP              0 ****  ****    0 ROOT
