@<TRIPOS>MOLECULE
FZV
   74    76     1     0     0
SMALL
No Charge or Current Charge


@<TRIPOS>ATOM
      1 C01          4.5130     3.8750    -1.3990 c3         1 FZV      -0.108433
      2 C02          5.0650     3.2660    -0.0840 c3         1 FZV       0.225000
      3 C03          6.5390     2.7980    -0.2010 c3         1 FZV      -0.108433
      4 C04          4.9270     4.2870     1.0670 c3         1 FZV      -0.108433
      5 C06          4.1100     1.0180    -0.4290 c          1 FZV       0.657100
      6 C09          3.0960    -1.2570    -0.1300 c3         1 FZV       0.137700
      7 C10          1.6170    -1.6390     0.1060 c3         1 FZV       0.023600
      8 C12         -1.1730    -1.0580    -0.1660 c3         1 FZV      -0.028700
      9 C13         -1.5800    -2.4770    -0.6290 c3         1 FZV      -0.020100
     10 C14         -2.9210    -2.8970    -0.0380 ca         1 FZV      -0.093300
     11 C15         -3.0160    -3.2520     1.3220 ca         1 FZV      -0.107000
     12 C16         -4.2580    -3.6020     1.8780 ca         1 FZV      -0.111000
     13 C17         -5.4140    -3.5990     1.0790 ca         1 FZV      -0.109000
     14 C18         -5.3250    -3.2460    -0.2780 ca         1 FZV      -0.111000
     15 C19         -4.0830    -2.8960    -0.8350 ca         1 FZV      -0.107000
     16 C20         -2.2800    -0.0350    -0.5170 c          1 FZV       0.617100
     17 C23         -4.1590     1.3160     0.4750 c3         1 FZV       0.104000
     18 C24         -5.4180     0.5100     0.0940 c3         1 FZV      -0.054100
     19 C25         -6.6680     1.3790     0.0460 ca         1 FZV      -0.132300
     20 C26         -6.8730     2.2800    -1.0150 ca         1 FZV      -0.068000
     21 C27         -8.0420     3.0590    -1.0100 ca         1 FZV      -0.162000
     22 C28         -8.9600     2.9140     0.0440 ca         1 FZV       0.332900
     23 C30         -7.6450     1.3000     1.0620 ca         1 FZV       0.334900
     24 C31          4.0690    -2.2290     0.5810 c3         1 FZV      -0.053100
     25 C32          5.5370    -1.8680     0.3660 ca         1 FZV      -0.083300
     26 C33          6.2440    -1.1430     1.3460 ca         1 FZV      -0.098000
     27 C34          7.5880    -0.7880     1.1330 ca         1 FZV      -0.107000
     28 C35          8.2320    -1.1560    -0.0600 ca         1 FZV      -0.107000
     29 C36          7.5320    -1.8800    -1.0390 ca         1 FZV      -0.107000
     30 C37          6.1890    -2.2350    -0.8280 ca         1 FZV      -0.098000
     31 N08          3.3560     0.1280     0.2780 ns         1 FZV      -0.498900
     32 N22         -2.9750     0.4600     0.5670 ns         1 FZV      -0.494900
     33 N29         -8.7720     2.0500     1.0680 nb         1 FZV      -0.666000
     34 O05          4.2380     2.1520     0.3250 os         1 FZV      -0.479100
     35 O07          4.5810     0.8100    -1.5360 o          1 FZV      -0.537000
     36 O21         -2.5310     0.3160    -1.6640 o          1 FZV      -0.588100
     37 S11          0.4730    -0.5690    -0.8860 ss         1 FZV      -0.330000
     38 H1           3.4280     4.0220    -1.3350 hc         1 FZV       0.048811
     39 H2           4.9760     4.8510    -1.5910 hc         1 FZV       0.048811
     40 H3           4.7260     3.2410    -2.2660 hc         1 FZV       0.048811
     41 H4           7.2080     3.6610    -0.2970 hc         1 FZV       0.048811
     42 H5           6.8400     2.2350     0.6910 hc         1 FZV       0.048811
     43 H6           6.7010     2.1630    -1.0790 hc         1 FZV       0.048811
     44 H7           3.8820     4.5950     1.1910 hc         1 FZV       0.048811
     45 H8           5.2700     3.8540     2.0150 hc         1 FZV       0.048811
     46 H9           5.5240     5.1840     0.8670 hc         1 FZV       0.048811
     47 H10          3.2810    -1.3390    -1.2100 h1         1 FZV       0.100700
     48 H11          1.4620    -2.6860    -0.1810 h1         1 FZV       0.059700
     49 H12          1.3750    -1.5340     1.1720 h1         1 FZV       0.059700
     50 H13         -1.0650    -1.0640     0.9260 h1         1 FZV       0.065700
     51 H14         -1.6170    -2.5020    -1.7250 hc         1 FZV       0.067700
     52 H15         -0.8090    -3.1970    -0.3330 hc         1 FZV       0.067700
     53 H16         -2.1270    -3.2530     1.9500 ha         1 FZV       0.115000
     54 H17         -4.3260    -3.8750     2.9300 ha         1 FZV       0.114500
     55 H18         -6.3750    -3.8680     1.5100 ha         1 FZV       0.114000
     56 H19         -6.2200    -3.2400    -0.8970 ha         1 FZV       0.114500
     57 H20         -4.0280    -2.6150    -1.8840 ha         1 FZV       0.115000
     58 H21         -3.9800     2.1020    -0.2710 h1         1 FZV       0.060200
     59 H22         -4.3160     1.8010     1.4470 h1         1 FZV       0.060200
     60 H23         -5.2620     0.0330    -0.8810 hc         1 FZV       0.058200
     61 H24         -5.5480    -0.3060     0.8160 hc         1 FZV       0.058200
     62 H25         -6.1480     2.3730    -1.8210 ha         1 FZV       0.126000
     63 H26         -8.2400     3.7670    -1.8100 ha         1 FZV       0.125000
     64 H27         -9.8730     3.5070     0.0690 h4         1 FZV       0.019100
     65 H28         -7.5210     0.6150     1.9000 h4         1 FZV       0.014100
     66 H29          3.8400    -2.2430     1.6540 hc         1 FZV       0.050200
     67 H30          3.8830    -3.2470     0.2190 hc         1 FZV       0.050200
     68 H31          5.7510    -0.8460     2.2680 ha         1 FZV       0.108500
     69 H32          8.1270    -0.2240     1.8910 ha         1 FZV       0.112000
     70 H33          9.2710    -0.8790    -0.2250 ha         1 FZV       0.111000
     71 H34          8.0300    -2.1640    -1.9640 ha         1 FZV       0.112000
     72 H35          5.6520    -2.7890    -1.5950 ha         1 FZV       0.108500
     73 H36          3.0260     0.4480     1.1780 hn         1 FZV       0.317500
     74 H37         -2.6990     0.1190     1.4800 hn         1 FZV       0.314500
@<TRIPOS>BOND
     1     1     2 1   
     2     1    38 1   
     3     1    39 1   
     4     1    40 1   
     5     2     3 1   
     6     2     4 1   
     7     2    34 1   
     8     3    41 1   
     9     3    42 1   
    10     3    43 1   
    11     4    44 1   
    12     4    45 1   
    13     4    46 1   
    14     5    31 1   
    15     5    34 1   
    16     5    35 2   
    17     6     7 1   
    18     6    24 1   
    19     6    31 1   
    20     6    47 1   
    21     7    37 1   
    22     7    48 1   
    23     7    49 1   
    24     8     9 1   
    25     8    16 1   
    26     8    37 1   
    27     8    50 1   
    28     9    10 1   
    29     9    51 1   
    30     9    52 1   
    31    10    11 ar  
    32    10    15 ar  
    33    11    12 ar  
    34    11    53 1   
    35    12    13 ar  
    36    12    54 1   
    37    13    14 ar  
    38    13    55 1   
    39    14    15 ar  
    40    14    56 1   
    41    15    57 1   
    42    16    32 1   
    43    16    36 2   
    44    17    18 1   
    45    17    32 1   
    46    17    58 1   
    47    17    59 1   
    48    18    19 1   
    49    18    60 1   
    50    18    61 1   
    51    19    20 ar  
    52    19    23 ar  
    53    20    21 ar  
    54    20    62 1   
    55    21    22 ar  
    56    21    63 1   
    57    22    33 ar  
    58    22    64 1   
    59    23    33 ar  
    60    23    65 1   
    61    24    25 1   
    62    24    66 1   
    63    24    67 1   
    64    25    26 ar  
    65    25    30 ar  
    66    26    27 ar  
    67    26    68 1   
    68    27    28 ar  
    69    27    69 1   
    70    28    29 ar  
    71    28    70 1   
    72    29    30 ar  
    73    29    71 1   
    74    30    72 1   
    75    31    73 1   
    76    32    74 1   
@<TRIPOS>SUBSTRUCTURE
     1 FZV         1 TEMP              0 ****  ****    0 ROOT
