@<TRIPOS>MOLECULE
FZV
   74    76     1     0     0
SMALL
bcc


@<TRIPOS>ATOM
      1 C01          4.4090     3.7220    -1.7190 c3         1 FZV      -0.108433
      2 C02          5.0980     3.2280    -0.4510 c3         1 FZV       0.201800
      3 C03          6.4950     2.6940    -0.7400 c3         1 FZV      -0.108433
      4 C04          5.1780     4.3640     0.5620 c3         1 FZV      -0.108433
      5 C06          3.9790     1.0610    -0.3100 c          1 FZV       0.773100
      6 C09          2.9380    -1.0630     0.3690 c3         1 FZV       0.137700
      7 C10          1.4980    -1.3340     0.7850 c3         1 FZV      -0.024300
      8 C12         -1.2020    -1.0320     0.2140 c3         1 FZV      -0.076600
      9 C13         -1.4370    -2.2160    -0.7330 c3         1 FZV      -0.020100
     10 C14         -2.7280    -2.9210    -0.4160 ca         1 FZV      -0.093300
     11 C15         -2.7970    -3.8210     0.6460 ca         1 FZV      -0.125000
     12 C16         -3.9960    -4.4320     0.9840 ca         1 FZV      -0.129000
     13 C17         -5.1490    -4.1490     0.2610 ca         1 FZV      -0.127000
     14 C18         -5.0920    -3.2540    -0.7980 ca         1 FZV      -0.129000
     15 C19         -3.8890    -2.6460    -1.1320 ca         1 FZV      -0.125000
     16 C20         -2.2680     0.0290     0.0040 c          1 FZV       0.684100
     17 C23         -4.2760     1.0720     0.9290 c3         1 FZV       0.104000
     18 C24         -5.4830     0.4470     0.2210 c3         1 FZV      -0.054100
     19 C25         -6.6180     1.4230     0.1350 ca         1 FZV      -0.197600
     20 C26         -6.7110     2.3440    -0.9030 ca         1 FZV      -0.086000
     21 C27         -7.7560     3.2530    -0.9180 ca         1 FZV      -0.245300
     22 C28         -8.6810     3.2130     0.1160 ca         1 FZV       0.398200
     23 C30         -7.6030     1.4780     1.1160 ca         1 FZV       0.400200
     24 C31          3.8990    -1.9870     1.1360 c3         1 FZV      -0.053100
     25 C32          5.3290    -1.7490     0.7470 ca         1 FZV      -0.083300
     26 C33          6.1300    -0.8660     1.4660 ca         1 FZV      -0.116000
     27 C34          7.4330    -0.6010     1.0670 ca         1 FZV      -0.125000
     28 C35          7.9560    -1.2200    -0.0590 ca         1 FZV      -0.125000
     29 C36          7.1690    -2.1080    -0.7820 ca         1 FZV      -0.125000
     30 C37          5.8660    -2.3660    -0.3800 ca         1 FZV      -0.116000
     31 N08          3.2620     0.3280     0.5750 ns         1 FZV      -0.565900
     32 N22         -3.1460     0.1740     1.0030 ns         1 FZV      -0.561900
     33 N29         -8.6100     2.3430     1.1160 nb         1 FZV      -0.666000
     34 O05          4.2970     2.2340     0.2360 os         1 FZV      -0.455900
     35 O07          4.2540     0.7060    -1.4360 o          1 FZV      -0.586000
     36 O21         -2.2940     0.6890    -1.0250 o          1 FZV      -0.588100
     37 S11          0.3900    -0.2030    -0.1050 ss         1 FZV      -0.234200
     38 H1           3.3820     4.0320    -1.5120 hc         1 FZV       0.048811
     39 H2           4.9460     4.5930    -2.0960 hc         1 FZV       0.048811
     40 H3           4.3940     2.9720    -2.5060 hc         1 FZV       0.048811
     41 H4           7.1140     3.5030    -1.1310 hc         1 FZV       0.048811
     42 H5           6.9680     2.3230     0.1710 hc         1 FZV       0.048811
     43 H6           6.4900     1.8890    -1.4700 hc         1 FZV       0.048811
     44 H7           4.1880     4.7510     0.8060 hc         1 FZV       0.048811
     45 H8           5.6580     4.0380     1.4870 hc         1 FZV       0.048811
     46 H9           5.7660     5.1850     0.1530 hc         1 FZV       0.048811
     47 H10          3.0340    -1.2670    -0.6980 h1         1 FZV       0.100700
     48 H11          1.2470    -2.3680     0.5430 h1         1 FZV       0.059700
     49 H12          1.3730    -1.2020     1.8630 h1         1 FZV       0.059700
     50 H13         -1.1980    -1.3840     1.2490 h1         1 FZV       0.065700
     51 H14         -1.4380    -1.8520    -1.7610 hc         1 FZV       0.067700
     52 H15         -0.5990    -2.9100    -0.6410 hc         1 FZV       0.067700
     53 H16         -1.9010    -4.0510     1.2130 ha         1 FZV       0.133000
     54 H17         -4.0310    -5.1310     1.8090 ha         1 FZV       0.132500
     55 H18         -6.0850    -4.6260     0.5220 ha         1 FZV       0.132000
     56 H19         -5.9840    -3.0280    -1.3680 ha         1 FZV       0.132500
     57 H20         -3.8550    -1.9430    -1.9570 ha         1 FZV       0.133000
     58 H21         -3.9710     1.9820     0.4130 h1         1 FZV       0.060200
     59 H22         -4.5460     1.3530     1.9470 h1         1 FZV       0.060200
     60 H23         -5.1860     0.1290    -0.7800 hc         1 FZV       0.058200
     61 H24         -5.7930    -0.4510     0.7600 hc         1 FZV       0.058200
     62 H25         -5.9740     2.3460    -1.6980 ha         1 FZV       0.144000
     63 H26         -7.8590     3.9770    -1.7140 ha         1 FZV       0.143000
     64 H27         -9.5120     3.9090     0.1340 h4         1 FZV       0.019100
     65 H28         -7.5750     0.7750     1.9440 h4         1 FZV       0.014100
     66 H29          3.7640    -1.8310     2.2100 hc         1 FZV       0.050200
     67 H30          3.6180    -3.0230     0.9280 hc         1 FZV       0.050200
     68 H31          5.7330    -0.3810     2.3510 ha         1 FZV       0.126500
     69 H32          8.0410     0.0910     1.6370 ha         1 FZV       0.130000
     70 H33          8.9730    -1.0170    -0.3700 ha         1 FZV       0.129000
     71 H34          7.5700    -2.6000    -1.6590 ha         1 FZV       0.130000
     72 H35          5.2550    -3.0560    -0.9510 ha         1 FZV       0.126500
     73 H36          3.1640     0.6910     1.5110 hn         1 FZV       0.317500
     74 H37         -3.1010    -0.4560     1.7870 hn         1 FZV       0.314500
@<TRIPOS>BOND
     1     1     2 1   
     2     1    38 1   
     3     1    39 1   
     4     1    40 1   
     5     2     3 1   
     6     2     4 1   
     7     2    34 1   
     8     3    41 1   
     9     3    42 1   
    10     3    43 1   
    11     4    44 1   
    12     4    45 1   
    13     4    46 1   
    14     5    31 1   
    15     5    34 1   
    16     5    35 2   
    17     6     7 1   
    18     6    24 1   
    19     6    31 1   
    20     6    47 1   
    21     7    37 1   
    22     7    48 1   
    23     7    49 1   
    24     8     9 1   
    25     8    16 1   
    26     8    37 1   
    27     8    50 1   
    28     9    10 1   
    29     9    51 1   
    30     9    52 1   
    31    10    11 ar  
    32    10    15 ar  
    33    11    12 ar  
    34    11    53 1   
    35    12    13 ar  
    36    12    54 1   
    37    13    14 ar  
    38    13    55 1   
    39    14    15 ar  
    40    14    56 1   
    41    15    57 1   
    42    16    32 1   
    43    16    36 2   
    44    17    18 1   
    45    17    32 1   
    46    17    58 1   
    47    17    59 1   
    48    18    19 1   
    49    18    60 1   
    50    18    61 1   
    51    19    20 ar  
    52    19    23 ar  
    53    20    21 ar  
    54    20    62 1   
    55    21    22 ar  
    56    21    63 1   
    57    22    33 ar  
    58    22    64 1   
    59    23    33 ar  
    60    23    65 1   
    61    24    25 1   
    62    24    66 1   
    63    24    67 1   
    64    25    26 ar  
    65    25    30 ar  
    66    26    27 ar  
    67    26    68 1   
    68    27    28 ar  
    69    27    69 1   
    70    28    29 ar  
    71    28    70 1   
    72    29    30 ar  
    73    29    71 1   
    74    30    72 1   
    75    31    73 1   
    76    32    74 1   
@<TRIPOS>SUBSTRUCTURE
     1 FZV         1 TEMP              0 ****  ****    0 ROOT
