@<TRIPOS>MOLECULE
FZW
   59    63     1     0     0
SMALL
No Charge or Current Charge


@<TRIPOS>ATOM
      1 FBI         -8.9910     1.5160    -0.9960 f          1 FZW      -0.113667
      2 CBH         -8.5830     0.9570     0.1650 c3         1 FZW       0.356300
      3 FBJ         -8.4400     1.9620     1.0590 f          1 FZW      -0.113667
      4 FBK         -9.6010     0.1870     0.6120 f          1 FZW      -0.113667
      5 CBD         -7.2840     0.1610    -0.0260 ca         1 FZW      -0.169300
      6 CBF         -6.0310     0.8080     0.0520 ca         1 FZW      -0.120000
      7 CBC         -7.3200    -1.2200    -0.3070 ca         1 FZW      -0.083000
      8 CBE         -6.1280    -1.9380    -0.4890 ca         1 FZW      -0.094000
      9 CBG         -4.8860    -1.2870    -0.4000 ca         1 FZW      -0.095000
     10 CBB         -4.8280     0.0980    -0.1310 ca         1 FZW      -0.025000
     11 NBA         -3.6130     0.8330    -0.0290 ns         1 FZW      -0.147000
     12 CAZ         -2.2790     0.4760    -0.1970 c          1 FZW       0.624700
     13 OBL         -1.9190    -0.6550    -0.5030 o          1 FZW      -0.576100
     14 CAU         -1.2660     1.5860     0.0240 ca         1 FZW      -0.145600
     15 CAV          0.1110     1.3110    -0.1490 ca         1 FZW      -0.060000
     16 CAW         -1.6440     2.8970     0.3970 ca         1 FZW      -0.099000
     17 CAX         -0.6730     3.8930     0.5810 ca         1 FZW      -0.098000
     18 CAY          0.6960     3.6090     0.4100 ca         1 FZW      -0.085300
     19 CBM          1.7170     4.7260     0.6270 c3         1 FZW      -0.056800
     20 CAT          1.0960     2.2990     0.0540 ca         1 FZW       0.297000
     21 NAS          2.4620     2.0170    -0.1240 nu         1 FZW      -0.929900
     22 CAJ          3.2460     0.8830     0.0190 ca         1 FZW       0.415900
     23 NAL          4.5280     1.0190    -0.3390 nb         1 FZW      -0.282500
     24 NAH          2.6990    -0.2370     0.5120 nb         1 FZW      -0.282500
     25 CAG          3.5280    -1.2920     0.6310 cp         1 FZW       0.273500
     26 CAA          2.9630    -2.5810     1.1500 cp         1 FZW      -0.224000
     27 CAC          1.5920    -2.7180     1.4930 ca         1 FZW      -0.021000
     28 CAE          1.1260    -3.9510     1.9720 ca         1 FZW      -0.180000
     29 CAF          2.0230    -5.0190     2.1020 ca         1 FZW       0.357400
     30 NAD          3.3320    -4.9180     1.7840 nb         1 FZW      -0.676500
     31 CAB          3.7830    -3.7280     1.3210 ca         1 FZW       0.387400
     32 NAI          4.8350    -1.2520     0.2930 nb         1 FZW      -0.255000
     33 CAK          5.2980    -0.0780    -0.1880 cp         1 FZW       0.273500
     34 CAM          6.7450     0.0100    -0.5750 cp         1 FZW      -0.224000
     35 CAN          7.3150     1.2040    -1.0910 ca         1 FZW      -0.021000
     36 CAP          8.6750     1.2210    -1.4340 ca         1 FZW      -0.180000
     37 CAR          9.4410     0.0600    -1.2590 ca         1 FZW       0.357400
     38 NAQ          8.9260    -1.0890    -0.7710 nb         1 FZW      -0.676500
     39 CAO          7.6130    -1.1060    -0.4400 ca         1 FZW       0.387400
     40 H1          -5.9890     1.8770     0.2540 ha         1 FZW       0.124000
     41 H2          -8.2710    -1.7450    -0.3870 ha         1 FZW       0.134000
     42 H3          -6.1660    -3.0040    -0.7010 ha         1 FZW       0.124000
     43 H4          -3.9880    -1.8790    -0.5430 ha         1 FZW       0.146000
     44 H5          -3.7490     1.8040     0.2150 hn         1 FZW       0.158000
     45 H6           0.4160     0.3190    -0.4650 ha         1 FZW       0.158000
     46 H7          -2.6870     3.1680     0.5440 ha         1 FZW       0.119000
     47 H8          -0.9900     4.8950     0.8610 ha         1 FZW       0.120000
     48 H9           2.4590     4.4430     1.3830 hc         1 FZW       0.049367
     49 H10          2.2490     4.9630    -0.3020 hc         1 FZW       0.049367
     50 H11          1.2410     5.6520     0.9730 hc         1 FZW       0.049367
     51 H12          3.0290     2.8460    -0.2940 hn         1 FZW       0.517000
     52 H13          0.8950    -1.8870     1.3900 ha         1 FZW       0.144500
     53 H14          0.0820    -4.0840     2.2400 ha         1 FZW       0.129000
     54 H15          1.6860    -5.9870     2.4720 h4         1 FZW       0.020100
     55 H16          4.8450    -3.6980     1.0800 h4         1 FZW       0.041100
     56 H17          6.7190     2.1050    -1.2270 ha         1 FZW       0.144500
     57 H18          9.1370     2.1200    -1.8310 ha         1 FZW       0.129000
     58 H19         10.4990     0.0480    -1.5180 h4         1 FZW       0.020100
     59 H20          7.2470    -2.0560    -0.0510 h4         1 FZW       0.041100
@<TRIPOS>BOND
     1     1     2 1   
     2     2     3 1   
     3     2     4 1   
     4     2     5 1   
     5     5     6 ar  
     6     5     7 ar  
     7     6    10 ar  
     8     6    40 1   
     9     7     8 ar  
    10     7    41 1   
    11     8     9 ar  
    12     8    42 1   
    13     9    10 ar  
    14     9    43 1   
    15    10    11 1   
    16    11    12 1   
    17    11    44 1   
    18    12    13 2   
    19    12    14 1   
    20    14    15 ar  
    21    14    16 ar  
    22    15    20 ar  
    23    15    45 1   
    24    16    17 ar  
    25    16    46 1   
    26    17    18 ar  
    27    17    47 1   
    28    18    19 1   
    29    18    20 ar  
    30    19    48 1   
    31    19    49 1   
    32    19    50 1   
    33    20    21 1   
    34    21    22 1   
    35    21    51 1   
    36    22    23 ar  
    37    22    24 ar  
    38    23    33 ar  
    39    24    25 ar  
    40    25    26 1   
    41    25    32 ar  
    42    26    27 ar  
    43    26    31 ar  
    44    27    28 ar  
    45    27    52 1   
    46    28    29 ar  
    47    28    53 1   
    48    29    30 ar  
    49    29    54 1   
    50    30    31 ar  
    51    31    55 1   
    52    32    33 ar  
    53    33    34 1   
    54    34    35 ar  
    55    34    39 ar  
    56    35    36 ar  
    57    35    56 1   
    58    36    37 ar  
    59    36    57 1   
    60    37    38 ar  
    61    37    58 1   
    62    38    39 ar  
    63    39    59 1   
@<TRIPOS>SUBSTRUCTURE
     1 FZW         1 TEMP              0 ****  ****    0 ROOT
