@<TRIPOS>MOLECULE
FZW
   59    63     1     0     0
SMALL
bcc


@<TRIPOS>ATOM
      1 FBI         -7.6790     0.9170    -2.5460 f          1 FZW      -0.234967
      2 CBH         -8.0220     0.5400    -1.3060 c3         1 FZW       0.720200
      3 FBJ         -8.4630     1.6430    -0.6820 f          1 FZW      -0.234967
      4 FBK         -9.0650    -0.2860    -1.4220 f          1 FZW      -0.234967
      5 CBD         -6.8720    -0.0830    -0.5780 ca         1 FZW      -0.169300
      6 CBF         -5.7010     0.6530    -0.4560 ca         1 FZW      -0.138000
      7 CBC         -6.9650    -1.3550    -0.0350 ca         1 FZW      -0.101000
      8 CBE         -5.8690    -1.8730     0.6410 ca         1 FZW      -0.112000
      9 CBG         -4.6960    -1.1510     0.7780 ca         1 FZW      -0.113000
     10 CBB         -4.6040     0.1260     0.2210 ca         1 FZW       0.067600
     11 NBA         -3.4740     0.9390     0.3350 ns         1 FZW      -0.473100
     12 CAZ         -2.1830     0.5440     0.5010 c          1 FZW       0.691700
     13 OBL         -1.8370    -0.6230     0.5530 o          1 FZW      -0.576100
     14 CAU         -1.1960     1.6570     0.6090 ca         1 FZW      -0.145600
     15 CAV          0.1080     1.3950     0.2060 ca         1 FZW      -0.078000
     16 CAW         -1.5170     2.9060     1.1290 ca         1 FZW      -0.117000
     17 CAX         -0.5330     3.8760     1.2310 ca         1 FZW      -0.116000
     18 CAY          0.7790     3.6340     0.8440 ca         1 FZW      -0.085300
     19 CBM          1.8250     4.6980     0.9830 c3         1 FZW      -0.056800
     20 CAT          1.0950     2.3650     0.3300 ca         1 FZW       0.158600
     21 NAS          2.4160     2.1350    -0.0760 nu         1 FZW      -0.736300
     22 CAJ          3.1260     0.9900    -0.0180 ca         1 FZW       0.941900
     23 NAL          4.3890     1.0670    -0.4490 nb         1 FZW      -0.808500
     24 NAH          2.5620    -0.1160     0.4570 nb         1 FZW      -0.808500
     25 CAG          3.3360    -1.1870     0.4710 cp         1 FZW       0.799500
     26 CAA          2.7390    -2.4410     0.9620 cp         1 FZW      -0.289300
     27 CAC          1.3840    -2.5210     1.2770 ca         1 FZW      -0.039000
     28 CAE          0.8730    -3.7270     1.7190 ca         1 FZW      -0.263300
     29 CAF          1.7340    -4.8090     1.8360 ca         1 FZW       0.422700
     30 NAD          3.0290    -4.7470     1.5430 nb         1 FZW      -0.676500
     31 CAB          3.5130    -3.5900     1.1150 ca         1 FZW       0.452700
     32 NAI          4.6000    -1.2140     0.0690 nb         1 FZW      -0.781000
     33 CAK          5.0790    -0.0550    -0.3780 cp         1 FZW       0.799500
     34 CAM          6.4810    -0.0250    -0.8310 cp         1 FZW      -0.289300
     35 CAN          7.0690     1.1520    -1.2860 ca         1 FZW      -0.039000
     36 CAP          8.3890     1.1240    -1.6970 ca         1 FZW      -0.263300
     37 CAR          9.0750    -0.0810    -1.6380 ca         1 FZW       0.422700
     38 NAQ          8.5270    -1.2120    -1.2060 nb         1 FZW      -0.676500
     39 CAO          7.2620    -1.1800    -0.8130 ca         1 FZW       0.452700
     40 H1          -5.6260     1.6450    -0.8870 ha         1 FZW       0.142000
     41 H2          -7.8670    -1.9440    -0.1210 ha         1 FZW       0.152000
     42 H3          -5.9330    -2.8610     1.0780 ha         1 FZW       0.142000
     43 H4          -3.8720    -1.5810     1.3240 ha         1 FZW       0.164000
     44 H5          -3.6240     1.9130     0.1200 hn         1 FZW       0.324500
     45 H6           0.3470     0.4300    -0.2110 ha         1 FZW       0.176000
     46 H7          -2.5140     3.1320     1.4840 ha         1 FZW       0.137000
     47 H8          -0.7870     4.8440     1.6430 ha         1 FZW       0.138000
     48 H9           2.6710     4.3550     1.5830 hc         1 FZW       0.049367
     49 H10          2.2230     5.0110     0.0140 hc         1 FZW       0.049367
     50 H11          1.4160     5.5840     1.4640 hc         1 FZW       0.049367
     51 H12          2.9490     2.9320    -0.3880 hn         1 FZW       0.461800
     52 H13          0.7400    -1.6570     1.1720 ha         1 FZW       0.162500
     53 H14         -0.1730    -3.8340     1.9680 ha         1 FZW       0.147000
     54 H15          1.3620    -5.7680     2.1800 h4         1 FZW       0.020100
     55 H16          4.5710    -3.5630     0.8790 h4         1 FZW       0.041100
     56 H17          6.4990     2.0710    -1.3150 ha         1 FZW       0.162500
     57 H18          8.8820     2.0170    -2.0550 ha         1 FZW       0.147000
     58 H19         10.1120    -0.1340    -1.9520 h4         1 FZW       0.020100
     59 H20          6.8390    -2.1150    -0.4670 h4         1 FZW       0.041100
@<TRIPOS>BOND
     1     1     2 1   
     2     2     3 1   
     3     2     4 1   
     4     2     5 1   
     5     5     6 ar  
     6     5     7 ar  
     7     6    10 ar  
     8     6    40 1   
     9     7     8 ar  
    10     7    41 1   
    11     8     9 ar  
    12     8    42 1   
    13     9    10 ar  
    14     9    43 1   
    15    10    11 1   
    16    11    12 1   
    17    11    44 1   
    18    12    13 2   
    19    12    14 1   
    20    14    15 ar  
    21    14    16 ar  
    22    15    20 ar  
    23    15    45 1   
    24    16    17 ar  
    25    16    46 1   
    26    17    18 ar  
    27    17    47 1   
    28    18    19 1   
    29    18    20 ar  
    30    19    48 1   
    31    19    49 1   
    32    19    50 1   
    33    20    21 1   
    34    21    22 1   
    35    21    51 1   
    36    22    23 ar  
    37    22    24 ar  
    38    23    33 ar  
    39    24    25 ar  
    40    25    26 1   
    41    25    32 ar  
    42    26    27 ar  
    43    26    31 ar  
    44    27    28 ar  
    45    27    52 1   
    46    28    29 ar  
    47    28    53 1   
    48    29    30 ar  
    49    29    54 1   
    50    30    31 ar  
    51    31    55 1   
    52    32    33 ar  
    53    33    34 1   
    54    34    35 ar  
    55    34    39 ar  
    56    35    36 ar  
    57    35    56 1   
    58    36    37 ar  
    59    36    57 1   
    60    37    38 ar  
    61    37    58 1   
    62    38    39 ar  
    63    39    59 1   
@<TRIPOS>SUBSTRUCTURE
     1 FZW         1 TEMP              0 ****  ****    0 ROOT
