@<TRIPOS>MOLECULE
FZX
   24    25     1     0     0
SMALL
No Charge or Current Charge


@<TRIPOS>ATOM
      1 C11        -28.9120   -19.5810    -3.3620 ca         1 FZX      -0.086000
      2 C10        -29.0720   -20.9520    -3.0690 ca         1 FZX      -0.061300
      3 C12        -28.5340   -18.6780    -2.3520 ca         1 FZX      -0.120500
      4 C13        -28.3170   -19.1360    -1.0430 ca         1 FZX      -0.123000
      5 C14        -28.4810   -20.4980    -0.7420 ca         1 FZX      -0.120500
      6 C15        -28.8590   -21.4020    -1.7500 ca         1 FZX      -0.086000
      7 C01        -28.6440   -21.0280    -7.5470 cc         1 FZX       0.207900
      8 C02        -29.5550   -21.0850    -6.5360 cd         1 FZX      -0.303000
      9 N03        -28.9010   -21.6980    -5.4790 na         1 FZX      -0.151500
     10 C04        -27.5960   -22.0030    -5.9030 cd         1 FZX       0.372000
     11 N05        -27.4580   -21.5800    -7.1740 nc         1 FZX      -0.679000
     12 C06        -26.4840   -22.7030    -5.1000 c          1 FZX       0.637500
     13 O07        -26.7010   -23.0850    -3.9550 o          1 FZX      -0.700000
     14 O08        -25.3870   -22.8860    -5.6250 o          1 FZX      -0.700000
     15 C09        -29.4930   -21.9480    -4.1510 c3         1 FZX       0.138900
     16 H1         -29.0830   -19.2090    -4.3690 ha         1 FZX       0.117000
     17 H2         -28.4110   -17.6230    -2.5860 ha         1 FZX       0.097500
     18 H3         -28.0250   -18.4370    -0.2620 ha         1 FZX       0.094000
     19 H4         -28.3160   -20.8540     0.2720 ha         1 FZX       0.097500
     20 H5         -28.9830   -22.4550    -1.5060 ha         1 FZX       0.117000
     21 H9         -30.5850   -21.9060    -4.2500 h1         1 FZX       0.060700
     22 H10        -29.2450   -22.9700    -3.8400 h1         1 FZX       0.060700
     23 H6         -28.7670   -20.6170    -8.5410 h4         1 FZX       0.006100
     24 H7         -30.5810   -20.7400    -6.4910 h4         1 FZX       0.124000
@<TRIPOS>BOND
     1     1     2 ar  
     2     1     3 ar  
     3     1    16 1   
     4     2     6 ar  
     5     2    15 1   
     6     3     4 ar  
     7     3    17 1   
     8     4     5 ar  
     9     4    18 1   
    10     5     6 ar  
    11     5    19 1   
    12     6    20 1   
    13     7     8 2   
    14     7    11 1   
    15     7    23 1   
    16     8     9 1   
    17     8    24 1   
    18     9    10 1   
    19     9    15 1   
    20    10    11 2   
    21    10    12 1   
    22    12    13 1   
    23    12    14 1   
    24    15    21 1   
    25    15    22 1   
@<TRIPOS>SUBSTRUCTURE
     1 FZX         1 TEMP              0 ****  ****    0 ROOT
