@<TRIPOS>MOLECULE
FZX
   24    25     1     0     0
SMALL
bcc


@<TRIPOS>ATOM
      1 C11        -28.7790   -19.6620    -3.4160 ca         1 FZX      -0.104000
      2 C10        -29.0340   -20.9920    -3.0980 ca         1 FZX      -0.061300
      3 C12        -28.4080   -18.7580    -2.4280 ca         1 FZX      -0.138500
      4 C13        -28.2930   -19.1720    -1.1080 ca         1 FZX      -0.141000
      5 C14        -28.5510   -20.4970    -0.7830 ca         1 FZX      -0.138500
      6 C15        -28.9150   -21.3990    -1.7730 ca         1 FZX      -0.104000
      7 C01        -28.6780   -21.0000    -7.4840 cc         1 FZX       0.273200
      8 C02        -29.5830   -21.1500    -6.4730 cd         1 FZX      -0.335600
      9 N03        -28.9030   -21.7400    -5.4480 na         1 FZX      -0.172900
     10 C04        -27.6160   -21.9170    -5.8630 cd         1 FZX       0.372000
     11 N05        -27.4670   -21.4780    -7.0960 nc         1 FZX      -0.679000
     12 C06        -26.5140   -22.5650    -5.0470 c          1 FZX       0.848100
     13 O07        -26.8520   -23.0760    -3.9630 o          1 FZX      -0.805300
     14 O08        -25.3810   -22.5280    -5.5530 o          1 FZX      -0.805300
     15 C09        -29.4840   -21.9820    -4.1430 c3         1 FZX       0.109600
     16 H1         -28.8640   -19.3190    -4.4400 ha         1 FZX       0.135000
     17 H2         -28.2100   -17.7280    -2.6930 ha         1 FZX       0.115500
     18 H3         -28.0010   -18.4680    -0.3390 ha         1 FZX       0.112000
     19 H4         -28.4570   -20.8340     0.2420 ha         1 FZX       0.115500
     20 H5         -29.1030   -22.4340    -1.5130 ha         1 FZX       0.135000
     21 H9         -30.5660   -21.9120    -4.2650 h1         1 FZX       0.060700
     22 H10        -29.2600   -22.9940    -3.8220 h1         1 FZX       0.060700
     23 H6         -28.8440   -20.5780    -8.4640 h4         1 FZX       0.006100
     24 H7         -30.6260   -20.8890    -6.3900 h4         1 FZX       0.142000
@<TRIPOS>BOND
     1     1     2 ar  
     2     1     3 ar  
     3     1    16 1   
     4     2     6 ar  
     5     2    15 1   
     6     3     4 ar  
     7     3    17 1   
     8     4     5 ar  
     9     4    18 1   
    10     5     6 ar  
    11     5    19 1   
    12     6    20 1   
    13     7     8 2   
    14     7    11 1   
    15     7    23 1   
    16     8     9 1   
    17     8    24 1   
    18     9    10 1   
    19     9    15 1   
    20    10    11 2   
    21    10    12 1   
    22    12    13 1   
    23    12    14 1   
    24    15    21 1   
    25    15    22 1   
@<TRIPOS>SUBSTRUCTURE
     1 FZX         1 TEMP              0 ****  ****    0 ROOT
