@<TRIPOS>MOLECULE
S00
   78    81     1     0     0
SMALL
abcg2


@<TRIPOS>ATOM
      1 C7          -4.3300    -1.6800     0.0740 c3         1 S00      -0.247100
      2 S8          -2.7430    -1.2760    -0.6670 s6         1 S00       1.171100
      3 C4          -4.3190    -3.0950     0.5570 ca         1 S00      -0.083300
      4 C5          -4.6780    -4.1310    -0.3020 ca         1 S00      -0.084500
      5 C6          -4.6490    -5.4470     0.1360 ca         1 S00      -0.109000
      6 C1          -4.2510    -5.7390     1.4340 ca         1 S00      -0.100000
      7 C2          -3.8870    -4.7110     2.2940 ca         1 S00      -0.109000
      8 C3          -3.9170    -3.3950     1.8550 ca         1 S00      -0.084500
      9 O12         -1.7260    -1.3800     0.3710 o          1 S00      -0.524500
     10 O13         -2.6010    -2.0520    -1.8900 o          1 S00      -0.524500
     11 C15         -4.2750     2.8850    -0.3970 c6         1 S00      -0.054700
     12 C16         -4.6820     4.3170    -0.7450 c6         1 S00      -0.070400
     13 C17         -6.1620     4.5760    -0.4860 c6         1 S00      -0.073400
     14 C18         -6.5340     4.2490     0.9560 c6         1 S00      -0.074400
     15 C19         -6.1480     2.8180     1.3070 c6         1 S00      -0.073400
     16 C20         -4.6690     2.5490     1.0400 c6         1 S00      -0.070400
     17 N9          -2.9370     0.3170    -1.0750 n7         1 S00      -0.884300
     18 C10         -2.2210     1.3220    -0.3130 c3         1 S00       0.154500
     19 C14         -2.7780     2.7070    -0.6550 c3         1 S00      -0.070400
     20 C11         -0.7270     1.2910    -0.6300 c          1 S00       0.586100
     21 O31         -0.3310     0.8760    -1.7100 o          1 S00      -0.610100
     22 N21          0.1080     1.8090     0.2810 n          1 S00      -0.384800
     23 C22          1.5220     1.9040    -0.0240 c5         1 S00       0.026700
     24 C26          2.1420     0.5160    -0.1470 c          1 S00       0.593100
     25 O30          1.8100    -0.3980     0.5880 o          1 S00      -0.572100
     26 C23          2.0920     2.6570     1.1870 c5         1 S00      -0.081400
     27 C24          1.1540     2.2760     2.3270 c5         1 S00      -0.093400
     28 C25         -0.2100     2.1990     1.6520 c5         1 S00       0.110000
     29 N27          3.1070     0.4220    -1.0770 ns         1 S00      -0.500900
     30 C28          3.8740    -0.7720    -1.3260 c3         1 S00       0.141300
     31 C29          5.3060    -0.6900    -0.8590 ca         1 S00      -0.088300
     32 C33          6.3000    -1.3700    -1.5590 ca         1 S00      -0.112000
     33 C34          7.6160    -1.3470    -1.1300 ca         1 S00      -0.077500
     34 C35          7.9760    -0.6470     0.0190 ca         1 S00      -0.145900
     35 C37          9.4000    -0.6290     0.4530 ce         1 S00       0.659800
     36 N38         10.3100    -0.7930    -0.4290 n2         1 S00      -0.827100
     37 N39          9.6020    -0.3790     1.7810 nv         1 S00      -1.075200
     38 C36          6.9840     0.0380     0.7170 ca         1 S00      -0.077500
     39 C32          5.6680     0.0190     0.2800 ca         1 S00      -0.112000
     40 H7          -5.0840    -1.5040    -0.6940 h1         1 S00       0.097700
     41 H7A         -4.4870    -0.9630     0.8820 h1         1 S00       0.097700
     42 H5          -4.9920    -3.9060    -1.3130 ha         1 S00       0.118500
     43 H6          -4.9350    -6.2450    -0.5370 ha         1 S00       0.115000
     44 H1          -4.2280    -6.7660     1.7760 ha         1 S00       0.113000
     45 H2          -3.5790    -4.9340     3.3070 ha         1 S00       0.115000
     46 H3          -3.6370    -2.5960     2.5310 ha         1 S00       0.118500
     47 H15         -4.8230     2.2080    -1.0640 hc         1 S00       0.058700
     48 H16A        -4.4380     4.5260    -1.7900 hc         1 S00       0.035700
     49 H17         -6.4060     5.6160    -0.7170 hc         1 S00       0.040200
     50 H17A        -6.7620     3.9590    -1.1640 hc         1 S00       0.040200
     51 H18         -6.0180     4.9420     1.6300 hc         1 S00       0.039700
     52 H18A        -7.6040     4.4020     1.1160 hc         1 S00       0.039700
     53 H19         -6.3800     2.6050     2.3530 hc         1 S00       0.040200
     54 H19A        -6.7500     2.1250     0.7100 hc         1 S00       0.040200
     55 H20         -4.4550     1.5000     1.2610 hc         1 S00       0.035700
     56 H20A        -4.0580     3.1430     1.7320 hc         1 S00       0.035700
     57 HN9         -2.9070     0.4480    -2.0800 hn         1 S00       0.501000
     58 H10         -2.3910     1.1300     0.7460 h1         1 S00       0.083700
     59 H14         -2.2260     3.4500    -0.0710 hc         1 S00       0.051200
     60 H14A        -2.5620     2.9260    -1.7060 hc         1 S00       0.051200
     61 H22          1.6780     2.4730    -0.9440 h1         1 S00       0.072700
     62 H23          3.1350     2.4090     1.3830 hc         1 S00       0.056700
     63 H23A         2.0420     3.7300     0.9930 hc         1 S00       0.056700
     64 H24          1.4250     1.3030     2.7370 hc         1 S00       0.066700
     65 H24A         1.1640     2.9990     3.1400 hc         1 S00       0.066700
     66 H25         -0.7160     3.1680     1.6710 h1         1 S00       0.049700
     67 H25A        -0.8600     1.4690     2.1360 h1         1 S00       0.049700
     68 HN27         3.2940     1.2210    -1.6620 hn         1 S00       0.314500
     69 H28          3.3760    -1.6040    -0.8260 h1         1 S00       0.071700
     70 H28A         3.8510    -0.9940    -2.3950 h1         1 S00       0.071700
     71 H33          6.0420    -1.9210    -2.4550 ha         1 S00       0.115500
     72 H34          8.3750    -1.8790    -1.6880 ha         1 S00       0.126000
     73 HN38        11.2350    -0.7920    -0.0070 hn         1 S00       0.370400
     74 HN39         8.8910    -0.6680     2.4330 hn         1 S00       0.460000
     75 HN3A        10.5390    -0.4940     2.1340 hn         1 S00       0.460000
     76 H36          7.2300     0.6150     1.5990 ha         1 S00       0.126000
     77 H32          4.9240     0.5760     0.8370 ha         1 S00       0.115500
     78 H16         -4.0860     5.0140    -0.1420 hc         1 S00       0.035700
@<TRIPOS>BOND
     1     1     2 1   
     2     1     3 1   
     3     1    40 1   
     4     1    41 1   
     5     2     9 2   
     6     2    10 2   
     7     2    17 1   
     8     3     4 ar  
     9     3     8 ar  
    10     4     5 ar  
    11     4    42 1   
    12     5     6 ar  
    13     5    43 1   
    14     6     7 ar  
    15     6    44 1   
    16     7     8 ar  
    17     7    45 1   
    18     8    46 1   
    19    11    12 1   
    20    11    16 1   
    21    11    19 1   
    22    11    47 1   
    23    12    13 1   
    24    12    48 1   
    25    12    78 1   
    26    13    14 1   
    27    13    49 1   
    28    13    50 1   
    29    14    15 1   
    30    14    51 1   
    31    14    52 1   
    32    15    16 1   
    33    15    53 1   
    34    15    54 1   
    35    16    55 1   
    36    16    56 1   
    37    17    18 1   
    38    17    57 1   
    39    18    19 1   
    40    18    20 1   
    41    18    58 1   
    42    19    59 1   
    43    19    60 1   
    44    20    21 2   
    45    20    22 1   
    46    22    23 1   
    47    22    28 1   
    48    23    24 1   
    49    23    26 1   
    50    23    61 1   
    51    24    25 2   
    52    24    29 1   
    53    26    27 1   
    54    26    62 1   
    55    26    63 1   
    56    27    28 1   
    57    27    64 1   
    58    27    65 1   
    59    28    66 1   
    60    28    67 1   
    61    29    30 1   
    62    29    68 1   
    63    30    31 1   
    64    30    69 1   
    65    30    70 1   
    66    31    32 ar  
    67    31    39 ar  
    68    32    33 ar  
    69    32    71 1   
    70    33    34 ar  
    71    33    72 1   
    72    34    35 1   
    73    34    38 ar  
    74    35    36 2   
    75    35    37 1   
    76    36    73 1   
    77    37    74 1   
    78    37    75 1   
    79    38    39 ar  
    80    38    76 1   
    81    39    77 1   
@<TRIPOS>SUBSTRUCTURE
     1 S00         1 TEMP              0 ****  ****    0 ROOT
