@<TRIPOS>MOLECULE
S00
   78    81     1     0     0
SMALL
No Charge or Current Charge


@<TRIPOS>ATOM
      1 C7          -4.3870    -1.4380    -0.0700 c3         1 S00      -0.247100
      2 S8          -3.0910    -1.4390    -1.3240 s6         1 S00       1.171100
      3 C4          -4.8830    -2.8250     0.3200 ca         1 S00      -0.083300
      4 C5          -5.9880    -3.3950    -0.3400 ca         1 S00      -0.084500
      5 C6          -6.4450    -4.6740     0.0220 ca         1 S00      -0.109000
      6 C1          -5.8010    -5.3890     1.0470 ca         1 S00      -0.100000
      7 C2          -4.6990    -4.8220     1.7090 ca         1 S00      -0.109000
      8 C3          -4.2410    -3.5430     1.3480 ca         1 S00      -0.084500
      9 O12         -1.8400    -1.9530    -0.7660 o          1 S00      -0.524500
     10 O13         -3.6340    -1.9800    -2.5710 o          1 S00      -0.524500
     11 C15         -4.1680     2.8090    -0.5540 c6         1 S00      -0.054700
     12 C16         -4.4980     4.2760    -0.9500 c6         1 S00      -0.070400
     13 C17         -6.0010     4.5980    -0.7560 c6         1 S00      -0.073400
     14 C18         -6.4480     4.3180     0.6980 c6         1 S00      -0.074400
     15 C19         -6.1300     2.8590     1.1050 c6         1 S00      -0.073400
     16 C20         -4.6290     2.5330     0.9090 c6         1 S00      -0.070400
     17 N9          -2.8640     0.1860    -1.6070 n7         1 S00      -0.884300
     18 C10         -2.2050     1.0360    -0.5680 c3         1 S00       0.154500
     19 C14         -2.6490     2.5100    -0.7730 c3         1 S00      -0.070400
     20 C11         -0.6340     0.9300    -0.5780 c          1 S00       0.586100
     21 O31         -0.0340     0.5970    -1.5970 o          1 S00      -0.610100
     22 N21          0.0890     1.2600     0.5920 n          1 S00      -0.384800
     23 C22          1.5780     1.2570     0.6300 c5         1 S00       0.026700
     24 C26          2.2170    -0.1680     0.7120 c          1 S00       0.593100
     25 O30          1.6580    -1.2270     0.9690 o          1 S00      -0.572100
     26 C23          1.8390     2.0330     1.9570 c5         1 S00      -0.081400
     27 C24          0.6810     1.5380     2.8590 c5         1 S00      -0.093400
     28 C25         -0.5310     1.6000     1.8950 c5         1 S00       0.110000
     29 N27          3.5600    -0.0830     0.4180 ns         1 S00      -0.500900
     30 C28          4.4680    -1.2270     0.3980 c3         1 S00       0.141300
     31 C29          5.8980    -0.7850     0.1340 ca         1 S00      -0.088300
     32 C33          6.3950    -0.7310    -1.1800 ca         1 S00      -0.112000
     33 C34          7.7150    -0.3140    -1.4250 ca         1 S00      -0.077500
     34 C35          8.5730     0.0460    -0.3600 ca         1 S00      -0.145900
     35 C37          9.9700     0.5190    -0.6380 ce         1 S00       0.659800
     36 N38         10.3610     0.9050    -1.7820 n2         1 S00      -0.827100
     37 N39         10.8830     0.4300     0.3540 nv         1 S00      -1.075200
     38 C36          8.0540     0.0120     0.9570 ca         1 S00      -0.077500
     39 C32          6.7330    -0.4040     1.1990 ca         1 S00      -0.112000
     40 H7          -5.2030    -0.8360    -0.4850 h1         1 S00       0.097700
     41 H7A         -3.9750    -0.9230     0.8020 h1         1 S00       0.097700
     42 H5          -6.4920    -2.8490    -1.1350 ha         1 S00       0.118500
     43 H6          -7.2990    -5.1110    -0.4920 ha         1 S00       0.115000
     44 H1          -6.1550    -6.3780     1.3270 ha         1 S00       0.113000
     45 H2          -4.1990    -5.3740     2.5030 ha         1 S00       0.115000
     46 H3          -3.3870    -3.1120     1.8650 ha         1 S00       0.118500
     47 H15         -4.7240     2.1410    -1.2270 hc         1 S00       0.058700
     48 H16A        -4.2220     4.4530    -1.9990 hc         1 S00       0.035700
     49 H17         -6.1920     5.6490    -1.0090 hc         1 S00       0.040200
     50 H17A        -6.6010     3.9950    -1.4510 hc         1 S00       0.040200
     51 H18         -5.9410     5.0120     1.3830 hc         1 S00       0.039700
     52 H18A        -7.5250     4.5080     0.8010 hc         1 S00       0.039700
     53 H19         -6.4130     2.6950     2.1540 hc         1 S00       0.040200
     54 H19A        -6.7390     2.1670     0.5060 hc         1 S00       0.040200
     55 H20         -4.4640     1.4820     1.1750 hc         1 S00       0.035700
     56 H20A        -4.0280     3.1310     1.6090 hc         1 S00       0.035700
     57 HN9         -2.2440     0.1420    -2.4170 hn         1 S00       0.501000
     58 H10         -2.5330     0.7260     0.4290 h1         1 S00       0.083700
     59 H14         -2.0630     3.1510    -0.1040 hc         1 S00       0.051200
     60 H14A        -2.3610     2.8090    -1.7880 hc         1 S00       0.051200
     61 H22          2.0050     1.7830    -0.2340 h1         1 S00       0.072700
     62 H23          2.8280     1.8370     2.3880 hc         1 S00       0.056700
     63 H23A         1.7700     3.1150     1.7940 hc         1 S00       0.056700
     64 H24          0.8560     0.5130     3.2070 hc         1 S00       0.066700
     65 H24A         0.5380     2.1620     3.7490 hc         1 S00       0.066700
     66 H25         -0.9650     2.6080     1.8680 h1         1 S00       0.049700
     67 H25A        -1.3110     0.8880     2.1940 h1         1 S00       0.049700
     68 HN27         3.9380     0.8330     0.2110 hn         1 S00       0.314500
     69 H28          4.4120    -1.7470     1.3650 h1         1 S00       0.071700
     70 H28A         4.1430    -1.9300    -0.3810 h1         1 S00       0.071700
     71 H33          5.7570    -1.0090    -2.0160 ha         1 S00       0.115500
     72 H34          8.0730    -0.2790    -2.4520 ha         1 S00       0.126000
     73 HN38        11.2750     1.3580    -1.6670 hn         1 S00       0.370400
     74 HN39        10.6080    -0.1590     1.1310 hn         1 S00       0.460000
     75 HN3A        11.8490     0.3360     0.0650 hn         1 S00       0.460000
     76 H36          8.6640     0.3200     1.8030 ha         1 S00       0.126000
     77 H32          6.3550    -0.4240     2.2200 ha         1 S00       0.115500
     78 H16         -3.8950     4.9700    -0.3490 hc         1 S00       0.035700
@<TRIPOS>BOND
     1     1     2 1   
     2     1     3 1   
     3     1    40 1   
     4     1    41 1   
     5     2     9 2   
     6     2    10 2   
     7     2    17 1   
     8     3     4 ar  
     9     3     8 ar  
    10     4     5 ar  
    11     4    42 1   
    12     5     6 ar  
    13     5    43 1   
    14     6     7 ar  
    15     6    44 1   
    16     7     8 ar  
    17     7    45 1   
    18     8    46 1   
    19    11    12 1   
    20    11    16 1   
    21    11    19 1   
    22    11    47 1   
    23    12    13 1   
    24    12    48 1   
    25    12    78 1   
    26    13    14 1   
    27    13    49 1   
    28    13    50 1   
    29    14    15 1   
    30    14    51 1   
    31    14    52 1   
    32    15    16 1   
    33    15    53 1   
    34    15    54 1   
    35    16    55 1   
    36    16    56 1   
    37    17    18 1   
    38    17    57 1   
    39    18    19 1   
    40    18    20 1   
    41    18    58 1   
    42    19    59 1   
    43    19    60 1   
    44    20    21 2   
    45    20    22 1   
    46    22    23 1   
    47    22    28 1   
    48    23    24 1   
    49    23    26 1   
    50    23    61 1   
    51    24    25 2   
    52    24    29 1   
    53    26    27 1   
    54    26    62 1   
    55    26    63 1   
    56    27    28 1   
    57    27    64 1   
    58    27    65 1   
    59    28    66 1   
    60    28    67 1   
    61    29    30 1   
    62    29    68 1   
    63    30    31 1   
    64    30    69 1   
    65    30    70 1   
    66    31    32 ar  
    67    31    39 ar  
    68    32    33 ar  
    69    32    71 1   
    70    33    34 ar  
    71    33    72 1   
    72    34    35 1   
    73    34    38 ar  
    74    35    36 2   
    75    35    37 1   
    76    36    73 1   
    77    37    74 1   
    78    37    75 1   
    79    38    39 ar  
    80    38    76 1   
    81    39    77 1   
@<TRIPOS>SUBSTRUCTURE
     1 S00         1 TEMP              0 ****  ****    0 ROOT
