@<TRIPOS>MOLECULE
S01
   58    62     1     0     0
SMALL
bcc


@<TRIPOS>ATOM
      1 C1          -0.7780    -0.4340    -2.4070 ca         1 S01      -0.043800
      2 C2          -1.5610    -1.5730    -2.5550 ca         1 S01      -0.104000
      3 C4          -2.7080    -1.5550    -3.3370 ca         1 S01      -0.124000
      4 C6          -3.0570    -0.3770    -3.9750 ca         1 S01       0.031400
      5 CL7         -4.4890    -0.3320    -4.9560 cl         1 S01      -0.113400
      6 C8          -2.2870     0.7690    -3.8490 ca         1 S01      -0.120000
      7 C10         -1.1420     0.7440    -3.0630 ca         1 S01      -0.062300
      8 C11         -0.2540     1.9440    -2.9220 c3         1 S01      -0.026100
      9 C14          1.0490     1.7780    -3.6990 c3         1 S01      -0.021100
     10 C17          1.9520     0.6120    -3.3630 ca         1 S01      -0.165600
     11 C18          1.7150    -0.3780    -2.3990 ca         1 S01       0.472100
     12 N19          2.5890    -1.3590    -2.1720 nb         1 S01      -0.666000
     13 C20          3.7180    -1.4070    -2.8580 ca         1 S01       0.402200
     14 C22          4.0640    -0.4860    -3.8410 ca         1 S01      -0.185600
     15 C23          5.3480    -0.5910    -4.6040 c3         1 S01      -0.042800
     16 C27          3.1460     0.5260    -4.0740 ca         1 S01      -0.107000
     17 C29          0.4640    -0.4330    -1.5960 ce         1 S01      -0.134000
     18 C30          0.4510    -0.4760    -0.2560 c2         1 S01      -0.061400
     19 C31          1.6770    -0.3760     0.6070 c6         1 S01      -0.067700
     20 C34          1.5510     0.8150     1.5610 c6         1 S01       0.096000
     21 N37          0.3270     0.7290     2.3370 n          1 S01      -0.478800
     22 C38         -0.8630     0.6900     1.5090 c6         1 S01       0.096000
     23 C41         -0.8180    -0.5030     0.5500 c6         1 S01      -0.067700
     24 C44          0.3650     0.4790     3.6630 c          1 S01       0.673100
     25 O45          1.4110     0.4130     4.2900 o          1 S01      -0.587100
     26 C46         -0.9730     0.2910     4.3670 c3         1 S01      -0.118100
     27 C49         -0.7900     0.1050     5.8410 ca         1 S01      -0.027300
     28 C50         -0.9190     1.1690     6.7250 ca         1 S01      -0.231800
     29 C52         -0.7400     0.9470     8.0820 ca         1 S01       0.401200
     30 N54         -0.4480    -0.2410     8.5990 nb         1 S01      -0.663000
     31 C55         -0.3260    -1.2580     7.7530 ca         1 S01       0.401200
     32 C57         -0.4860    -1.1390     6.3820 ca         1 S01      -0.231800
     33 H2          -1.2760    -2.4900    -2.0540 ha         1 S01       0.144000
     34 H4          -3.3130    -2.4440    -3.4450 ha         1 S01       0.149000
     35 H8          -2.5790     1.6810    -4.3560 ha         1 S01       0.147000
     36 H111        -0.0400     2.1270    -1.8660 hc         1 S01       0.053700
     37 H112        -0.7580     2.8340    -3.3000 hc         1 S01       0.053700
     38 H141         1.6340     2.6950    -3.5830 hc         1 S01       0.051700
     39 H142         0.8090     1.7180    -4.7650 hc         1 S01       0.051700
     40 H20          4.3930    -2.2250    -2.6210 h4         1 S01       0.019100
     41 H231         5.1670    -0.8610    -5.6450 hc         1 S01       0.046033
     42 H232         5.8860     0.3580    -4.6070 hc         1 S01       0.046033
     43 H233         6.0030    -1.3470    -4.1740 hc         1 S01       0.046033
     44 H27          3.3620     1.2810    -4.8240 ha         1 S01       0.133000
     45 H311         1.7810    -1.2900     1.2000 hc         1 S01       0.064950
     46 H312         2.5880    -0.2660     0.0250 hc         1 S01       0.064950
     47 H341         2.4060     0.8600     2.2290 h1         1 S01       0.057450
     48 H342         1.5320     1.7440     0.9840 h1         1 S01       0.057450
     49 H381        -1.7640     0.6470     2.1140 h1         1 S01       0.057450
     50 H382        -0.9140     1.6190     0.9330 h1         1 S01       0.057450
     51 H411        -1.7080    -0.4820    -0.0780 hc         1 S01       0.064950
     52 H412        -0.8570    -1.4250     1.1400 hc         1 S01       0.064950
     53 H461        -1.6220     1.1490     4.1780 hc         1 S01       0.067700
     54 H462        -1.4830    -0.5810     3.9460 hc         1 S01       0.067700
     55 H50         -1.1620     2.1620     6.3690 ha         1 S01       0.138000
     56 H52         -0.8420     1.7680     8.7820 h4         1 S01       0.017600
     57 H55         -0.0880    -2.2230     8.1870 h4         1 S01       0.017600
     58 H57         -0.3790    -2.0100     5.7480 ha         1 S01       0.138000
@<TRIPOS>BOND
     1     1     2 ar  
     2     1     7 ar  
     3     1    17 1   
     4     2     3 ar  
     5     2    33 1   
     6     3     4 ar  
     7     3    34 1   
     8     4     5 1   
     9     4     6 ar  
    10     6     7 ar  
    11     6    35 1   
    12     7     8 1   
    13     8     9 1   
    14     8    36 1   
    15     8    37 1   
    16     9    10 1   
    17     9    38 1   
    18     9    39 1   
    19    10    11 ar  
    20    10    16 ar  
    21    11    12 ar  
    22    11    17 1   
    23    12    13 ar  
    24    13    14 ar  
    25    13    40 1   
    26    14    15 1   
    27    14    16 ar  
    28    15    41 1   
    29    15    42 1   
    30    15    43 1   
    31    16    44 1   
    32    17    18 2   
    33    18    19 1   
    34    18    23 1   
    35    19    20 1   
    36    19    45 1   
    37    19    46 1   
    38    20    21 1   
    39    20    47 1   
    40    20    48 1   
    41    21    22 1   
    42    21    24 1   
    43    22    23 1   
    44    22    49 1   
    45    22    50 1   
    46    23    51 1   
    47    23    52 1   
    48    24    25 2   
    49    24    26 1   
    50    26    27 1   
    51    26    53 1   
    52    26    54 1   
    53    27    28 ar  
    54    27    32 ar  
    55    28    29 ar  
    56    28    55 1   
    57    29    30 ar  
    58    29    56 1   
    59    30    31 ar  
    60    31    32 ar  
    61    31    57 1   
    62    32    58 1   
@<TRIPOS>SUBSTRUCTURE
     1 S01         1 TEMP              0 ****  ****    0 ROOT
