@<TRIPOS>MOLECULE
S01
   58    62     1     0     0
SMALL
No Charge or Current Charge


@<TRIPOS>ATOM
      1 C1          -0.7350    -0.4440    -2.4810 ca         1 S01      -0.043800
      2 C2          -1.5000    -1.6220    -2.5630 ca         1 S01      -0.086000
      3 C4          -2.6710    -1.6450    -3.3390 ca         1 S01      -0.106000
      4 C6          -3.0730    -0.4920    -4.0340 ca         1 S01       0.123000
      5 Cl7         -4.5380    -0.5190    -5.0060 cl         1 S01      -0.205000
      6 C8          -2.3070     0.6830    -3.9550 ca         1 S01      -0.102000
      7 C10         -1.1330     0.7080    -3.1770 ca         1 S01      -0.062300
      8 C11         -0.2800     1.9610    -3.0690 c3         1 S01      -0.026100
      9 C14          1.0570     1.8280    -3.8300 c3         1 S01      -0.021100
     10 C17          1.9960     0.6580    -3.4800 ca         1 S01      -0.100300
     11 C18          1.7540    -0.3450    -2.4930 ca         1 S01       0.406800
     12 N19          2.6190    -1.3670    -2.2690 nb         1 S01      -0.666000
     13 C20          3.7610    -1.4180    -2.9840 ca         1 S01       0.336900
     14 C22          4.0970    -0.4660    -3.9610 ca         1 S01      -0.120300
     15 C23          5.3990    -0.5720    -4.7430 c3         1 S01      -0.042800
     16 C27          3.1980     0.5820    -4.2120 ca         1 S01      -0.089000
     17 C29          0.5060    -0.3910    -1.6700 ce         1 S01      -0.134000
     18 C30          0.4800    -0.3560    -0.3060 c2         1 S01      -0.061400
     19 C31          1.7290    -0.2330     0.5770 c6         1 S01      -0.067700
     20 C34          1.5790     0.8900     1.6280 c6         1 S01       0.096000
     21 N37          0.3340     0.7220     2.4170 n          1 S01      -0.411800
     22 C38         -0.8810     0.7320     1.5590 c6         1 S01       0.096000
     23 C41         -0.8190    -0.4030     0.5120 c6         1 S01      -0.067700
     24 C44          0.3520     0.2870     3.7660 c          1 S01       0.606100
     25 O45          1.4130     0.0090     4.3140 o          1 S01      -0.587100
     26 C46         -0.9780     0.2020     4.5400 c3         1 S01      -0.118100
     27 C49         -0.8320     0.0520     6.0490 ca         1 S01      -0.027300
     28 C50         -0.7010     1.1770     6.8810 ca         1 S01      -0.148500
     29 C52         -0.5700     0.9960     8.2690 ca         1 S01       0.335900
     30 N54         -0.5650    -0.2240     8.8560 nb         1 S01      -0.663000
     31 C55         -0.6920    -1.3070     8.0540 ca         1 S01       0.335900
     32 C57         -0.8280    -1.2150     6.6580 ca         1 S01      -0.148500
     33 H2          -1.1860    -2.5140    -2.0250 ha         1 S01       0.126000
     34 H4          -3.2660    -2.5530    -3.4040 ha         1 S01       0.131000
     35 H8          -2.6250     1.5690    -4.4980 ha         1 S01       0.129000
     36 H111        -0.0770     2.1990    -2.0170 hc         1 S01       0.053700
     37 H112        -0.8240     2.8270    -3.4670 hc         1 S01       0.053700
     38 H141         1.6050     2.7700    -3.7020 hc         1 S01       0.051700
     39 H142         0.8200     1.7720    -4.9000 hc         1 S01       0.051700
     40 H20          4.4270    -2.2520    -2.7660 h4         1 S01       0.019100
     41 H231         5.2220    -0.9870    -5.7420 hc         1 S01       0.046033
     42 H232         5.8680     0.4120    -4.8660 hc         1 S01       0.046033
     43 H233         6.1220    -1.2200    -4.2340 hc         1 S01       0.046033
     44 H27          3.4260     1.3270    -4.9720 ha         1 S01       0.115000
     45 H311         1.9040    -1.1890     1.0880 hc         1 S01       0.064950
     46 H312         2.6300    -0.0280    -0.0110 hc         1 S01       0.064950
     47 H341         2.4630     0.9070     2.2810 h1         1 S01       0.057450
     48 H342         1.5430     1.8620     1.1140 h1         1 S01       0.057450
     49 H381        -1.8040     0.6320     2.1430 h1         1 S01       0.057450
     50 H382        -0.9370     1.6990     1.0380 h1         1 S01       0.057450
     51 H411        -1.7110    -0.3370    -0.1220 hc         1 S01       0.064950
     52 H412        -0.8820    -1.3720     1.0250 hc         1 S01       0.064950
     53 H461        -1.5860     1.0740     4.2770 hc         1 S01       0.067700
     54 H462        -1.5650    -0.6110     4.0970 hc         1 S01       0.067700
     55 H50         -0.6980     2.1810     6.4660 ha         1 S01       0.120000
     56 H52         -0.4660     1.8540     8.9320 h4         1 S01       0.017600
     57 H55         -0.6860    -2.2790     8.5470 h4         1 S01       0.017600
     58 H57         -0.9260    -2.1200     6.0650 ha         1 S01       0.120000
@<TRIPOS>BOND
     1     1     2 ar  
     2     1     7 ar  
     3     1    17 1   
     4     2     3 ar  
     5     2    33 1   
     6     3     4 ar  
     7     3    34 1   
     8     4     5 1   
     9     4     6 ar  
    10     6     7 ar  
    11     6    35 1   
    12     7     8 1   
    13     8     9 1   
    14     8    36 1   
    15     8    37 1   
    16     9    10 1   
    17     9    38 1   
    18     9    39 1   
    19    10    11 ar  
    20    10    16 ar  
    21    11    12 ar  
    22    11    17 1   
    23    12    13 ar  
    24    13    14 ar  
    25    13    40 1   
    26    14    15 1   
    27    14    16 ar  
    28    15    41 1   
    29    15    42 1   
    30    15    43 1   
    31    16    44 1   
    32    17    18 2   
    33    18    19 1   
    34    18    23 1   
    35    19    20 1   
    36    19    45 1   
    37    19    46 1   
    38    20    21 1   
    39    20    47 1   
    40    20    48 1   
    41    21    22 1   
    42    21    24 1   
    43    22    23 1   
    44    22    49 1   
    45    22    50 1   
    46    23    51 1   
    47    23    52 1   
    48    24    25 2   
    49    24    26 1   
    50    26    27 1   
    51    26    53 1   
    52    26    54 1   
    53    27    28 ar  
    54    27    32 ar  
    55    28    29 ar  
    56    28    55 1   
    57    29    30 ar  
    58    29    56 1   
    59    30    31 ar  
    60    31    32 ar  
    61    31    57 1   
    62    32    58 1   
@<TRIPOS>SUBSTRUCTURE
     1 S01         1 TEMP              0 ****  ****    0 ROOT
