@<TRIPOS>MOLECULE
S03
   59    63     1     0     0
SMALL
bcc


@<TRIPOS>ATOM
      1 N33          5.2700     2.5080     0.1770 nv         1 S03      -0.959500
      2 C1           3.9630     2.8020     0.1240 ca         1 S03       0.759200
      3 N6           3.6160     4.0860     0.2460 nb         1 S03      -0.829000
      4 C5           2.3260     4.4060     0.2280 ca         1 S03       0.704900
      5 C2           2.9560     1.8300    -0.0660 ca         1 S03      -0.372400
      6 C9           2.8730     0.4080    -0.2430 cc         1 S03      -0.059400
      7 C10          3.9450    -0.5840    -0.3790 ca         1 S03       0.018200
      8 C11          5.0230    -0.3680    -1.2450 ca         1 S03      -0.172000
      9 C12          6.0040    -1.3360    -1.3740 ca         1 S03      -0.092000
     10 C13          5.9410    -2.5290    -0.6640 ca         1 S03      -0.219000
     11 C14          4.8650    -2.7520     0.1920 ca         1 S03       0.143100
     12 O16          4.6970    -3.8680     0.9250 os         1 S03      -0.318900
     13 C17          5.6890    -4.8740     0.8630 c3         1 S03       0.125700
     14 C15          3.8770    -1.7760     0.3320 ca         1 S03      -0.162000
     15 C8           1.5400     0.1180    -0.2850 cd         1 S03      -0.099100
     16 C3           1.6470     2.3200    -0.0100 ca         1 S03       0.485800
     17 N4           1.2920     3.5980     0.1230 nb         1 S03      -0.752000
     18 N7           0.7910     1.2650    -0.1420 na         1 S03      -0.085200
     19 C18         -0.6200     1.3050    -0.1350 ca         1 S03       0.009800
     20 C19         -1.3270     0.5620    -1.0760 ca         1 S03      -0.126000
     21 C20         -2.7110     0.5530    -1.0510 ca         1 S03      -0.107000
     22 C23         -1.3060     2.0450     0.8190 ca         1 S03      -0.126000
     23 C22         -2.6930     2.0340     0.8250 ca         1 S03      -0.107000
     24 C21         -3.4150     1.2910    -0.1020 ca         1 S03      -0.087300
     25 C24         -4.9210     1.2950    -0.1020 c3         1 S03       0.214100
     26 N26         -5.4750    -0.0290    -0.2940 n3         1 S03      -0.721600
     27 C27         -6.8910     0.0300    -0.6140 c6         1 S03       0.168300
     28 C28         -7.4480    -1.3530    -0.9140 c6         1 S03      -0.093900
     29 C31         -5.2230    -0.8860     0.8510 c6         1 S03       0.168300
     30 C30         -5.7340    -2.2970     0.6080 c6         1 S03      -0.093900
     31 C29         -7.2160    -2.2840     0.2620 c6         1 S03       0.148100
     32 O32         -7.7080    -3.5640    -0.0770 oh         1 S03      -0.594800
     33 H331         5.9130     3.2340     0.4440 hn         1 S03       0.442300
     34 H332         5.5870     1.5590     0.2670 hn         1 S03       0.442300
     35 H5           2.1040     5.4640     0.3210 h5         1 S03       0.044100
     36 H11          5.0740     0.5360    -1.8390 ha         1 S03       0.144000
     37 H12          6.8360    -1.1680    -2.0450 ha         1 S03       0.130000
     38 H13          6.7280    -3.2600    -0.7900 ha         1 S03       0.135000
     39 H171         6.6670    -4.5030     1.1790 h1         1 S03       0.041033
     40 H172         5.3750    -5.6600     1.5460 h1         1 S03       0.041033
     41 H173         5.7790    -5.2990    -0.1400 h1         1 S03       0.041033
     42 H15          3.0610    -1.9510     1.0250 ha         1 S03       0.148000
     43 H8           1.0580    -0.8390    -0.4110 h4         1 S03       0.175000
     44 H19         -0.7970     0.0010    -1.8350 ha         1 S03       0.148000
     45 H20         -3.2560    -0.0380    -1.7760 ha         1 S03       0.142000
     46 H23         -0.7670     2.6100     1.5660 ha         1 S03       0.148000
     47 H22         -3.2190     2.6040     1.5810 ha         1 S03       0.142000
     48 H241        -5.2880     1.7680     0.8250 h1         1 S03       0.040700
     49 H242        -5.2720     1.9290    -0.9230 h1         1 S03       0.040700
     50 H271        -7.4750     0.4890     0.2040 h1         1 S03       0.033700
     51 H272        -7.0210     0.6720    -1.4880 h1         1 S03       0.033700
     52 H281        -8.5150    -1.2700    -1.1360 hc         1 S03       0.056700
     53 H282        -6.9550    -1.7580    -1.8030 hc         1 S03       0.056700
     54 H311        -4.1480    -0.9210     1.0400 h1         1 S03       0.033700
     55 H312        -5.6860    -0.4720     1.7640 h1         1 S03       0.033700
     56 H301        -5.5520    -2.9020     1.5010 hc         1 S03       0.056700
     57 H302        -5.1750    -2.7510    -0.2150 hc         1 S03       0.056700
     58 H29         -7.7680    -1.8810     1.1270 h1         1 S03       0.023700
     59 H32         -7.6060    -4.1380     0.6890 ho         1 S03       0.402000
@<TRIPOS>BOND
     1     1     2 1   
     2     1    33 1   
     3     1    34 1   
     4     2     3 ar  
     5     2     5 ar  
     6     3     4 ar  
     7     4    17 ar  
     8     4    35 1   
     9     5     6 1   
    10     5    16 ar  
    11     6     7 1   
    12     6    15 2   
    13     7     8 ar  
    14     7    14 ar  
    15     8     9 ar  
    16     8    36 1   
    17     9    10 ar  
    18     9    37 1   
    19    10    11 ar  
    20    10    38 1   
    21    11    12 1   
    22    11    14 ar  
    23    12    13 1   
    24    13    39 1   
    25    13    40 1   
    26    13    41 1   
    27    14    42 1   
    28    15    18 1   
    29    15    43 1   
    30    16    17 ar  
    31    16    18 1   
    32    18    19 1   
    33    19    20 ar  
    34    19    22 ar  
    35    20    21 ar  
    36    20    44 1   
    37    21    24 ar  
    38    21    45 1   
    39    22    23 ar  
    40    22    46 1   
    41    23    24 ar  
    42    23    47 1   
    43    24    25 1   
    44    25    26 1   
    45    25    48 1   
    46    25    49 1   
    47    26    27 1   
    48    26    29 1   
    49    27    28 1   
    50    27    50 1   
    51    27    51 1   
    52    28    31 1   
    53    28    52 1   
    54    28    53 1   
    55    29    30 1   
    56    29    54 1   
    57    29    55 1   
    58    30    31 1   
    59    30    56 1   
    60    30    57 1   
    61    31    32 1   
    62    31    58 1   
    63    32    59 1   
@<TRIPOS>SUBSTRUCTURE
     1 S03         1 TEMP              0 ****  ****    0 ROOT
