@<TRIPOS>MOLECULE
S03
   59    63     1     0     0
SMALL
No Charge or Current Charge


@<TRIPOS>ATOM
      1 N33          5.1530     2.3360     0.5110 nv         1 S03      -1.069900
      2 C1           3.9430     2.8290     0.1590 ca         1 S03       0.430900
      3 N6           3.7670     4.1420     0.3630 nb         1 S03      -0.303000
      4 C5           2.5430     4.6360     0.0560 ca         1 S03       0.178900
      5 C2           2.9050     2.0390    -0.3500 ca         1 S03      -0.241800
      6 C9           2.7820     0.6270    -0.6060 cc         1 S03      -0.059400
      7 C10          3.7560    -0.4550    -0.4830 ca         1 S03       0.018200
      8 C11          5.0140    -0.3570    -1.1060 ca         1 S03      -0.154000
      9 C12          5.9470    -1.4010    -0.9940 ca         1 S03      -0.074000
     10 C13          5.6270    -2.5550    -0.2600 ca         1 S03      -0.201000
     11 C14          4.3630    -2.6670     0.3600 ca         1 S03       0.143100
     12 O16          3.9900    -3.7780     1.0910 os         1 S03      -0.342100
     13 C17          4.8650    -4.9060     1.2720 c3         1 S03       0.148900
     14 C15          3.4370    -1.6180     0.2420 ca         1 S03      -0.144000
     15 C8           1.4720     0.3800    -0.9830 cd         1 S03      -0.149100
     16 C3           1.6830     2.6190    -0.6110 ca         1 S03       0.157500
     17 N4           1.4830     3.9390    -0.4180 nb         1 S03      -0.226000
     18 N7           0.8170     1.6280    -1.0650 na         1 S03      -0.085200
     19 C18         -0.5430     1.5500    -0.7790 ca         1 S03       0.009800
     20 C19         -1.4650     1.3330    -1.8190 ca         1 S03      -0.108000
     21 C20         -2.8400     1.2490    -1.5390 ca         1 S03      -0.089000
     22 C23         -1.0070     1.6810     0.5440 ca         1 S03      -0.108000
     23 C22         -2.3820     1.5970     0.8230 ca         1 S03      -0.089000
     24 C21         -3.3070     1.3800    -0.2170 ca         1 S03      -0.087300
     25 C24         -4.8010     1.2850     0.0800 c3         1 S03       0.214100
     26 N26         -5.3700    -0.0610    -0.1770 n3         1 S03      -0.721600
     27 C27         -6.8540    -0.0700    -0.0640 c6         1 S03       0.168300
     28 C28         -7.4440    -1.4440    -0.4570 c6         1 S03      -0.093900
     29 C31         -4.7500    -1.1240     0.6640 c6         1 S03       0.168300
     30 C30         -5.2870    -2.5260     0.2930 c6         1 S03      -0.093900
     31 C29         -6.8270    -2.5680     0.4020 c6         1 S03       0.171300
     32 O32         -7.3220    -3.8410    -0.0250 oh         1 S03      -0.657000
     33 H331         5.7490     2.9020     1.1080 hn         1 S03       0.497500
     34 H332         5.2560     1.3270     0.5740 hn         1 S03       0.497500
     35 H5           2.3930     5.7020     0.2160 h5         1 S03       0.044100
     36 H11          5.2620     0.5260    -1.6900 ha         1 S03       0.126000
     37 H12          6.9170    -1.3160    -1.4800 ha         1 S03       0.112000
     38 H13          6.3650    -3.3480    -0.1880 ha         1 S03       0.117000
     39 H171         5.7880    -4.6050     1.7840 h1         1 S03       0.041033
     40 H172         4.3730    -5.6740     1.8820 h1         1 S03       0.041033
     41 H173         5.1270    -5.3550     0.3060 h1         1 S03       0.041033
     42 H15          2.4680    -1.7080     0.7250 ha         1 S03       0.130000
     43 H8           0.9730    -0.5590    -1.1970 h4         1 S03       0.225000
     44 H19         -1.1150     1.2280    -2.8440 ha         1 S03       0.130000
     45 H20         -3.5470     1.0750    -2.3480 ha         1 S03       0.124000
     46 H23         -0.3020     1.8450     1.3550 ha         1 S03       0.130000
     47 H22         -2.7280     1.6970     1.8500 ha         1 S03       0.124000
     48 H241        -4.9820     1.5740     1.1250 h1         1 S03       0.040700
     49 H242        -5.3140     2.0280    -0.5460 h1         1 S03       0.040700
     50 H271        -7.1580     0.1710     0.9660 h1         1 S03       0.033700
     51 H272        -7.2910     0.6990    -0.7180 h1         1 S03       0.033700
     52 H281        -8.5340    -1.4270    -0.3290 hc         1 S03       0.056700
     53 H282        -7.2520    -1.6330    -1.5220 hc         1 S03       0.056700
     54 H311        -3.6580    -1.1300     0.5390 h1         1 S03       0.033700
     55 H312        -4.9520    -0.9310     1.7290 h1         1 S03       0.033700
     56 H301        -4.8370    -3.2780     0.9550 hc         1 S03       0.056700
     57 H302        -4.9740    -2.7750    -0.7300 hc         1 S03       0.056700
     58 H29         -7.1070    -2.3960     1.4520 h1         1 S03       0.023700
     59 H32         -6.9610    -4.5080     0.6000 ho         1 S03       0.441000
@<TRIPOS>BOND
     1     1     2 1   
     2     1    33 1   
     3     1    34 1   
     4     2     3 ar  
     5     2     5 ar  
     6     3     4 ar  
     7     4    17 ar  
     8     4    35 1   
     9     5     6 1   
    10     5    16 ar  
    11     6     7 1   
    12     6    15 2   
    13     7     8 ar  
    14     7    14 ar  
    15     8     9 ar  
    16     8    36 1   
    17     9    10 ar  
    18     9    37 1   
    19    10    11 ar  
    20    10    38 1   
    21    11    12 1   
    22    11    14 ar  
    23    12    13 1   
    24    13    39 1   
    25    13    40 1   
    26    13    41 1   
    27    14    42 1   
    28    15    18 1   
    29    15    43 1   
    30    16    17 ar  
    31    16    18 1   
    32    18    19 1   
    33    19    20 ar  
    34    19    22 ar  
    35    20    21 ar  
    36    20    44 1   
    37    21    24 ar  
    38    21    45 1   
    39    22    23 ar  
    40    22    46 1   
    41    23    24 ar  
    42    23    47 1   
    43    24    25 1   
    44    25    26 1   
    45    25    48 1   
    46    25    49 1   
    47    26    27 1   
    48    26    29 1   
    49    27    28 1   
    50    27    50 1   
    51    27    51 1   
    52    28    31 1   
    53    28    52 1   
    54    28    53 1   
    55    29    30 1   
    56    29    54 1   
    57    29    55 1   
    58    30    31 1   
    59    30    56 1   
    60    30    57 1   
    61    31    32 1   
    62    31    58 1   
    63    32    59 1   
@<TRIPOS>SUBSTRUCTURE
     1 S03         1 TEMP              0 ****  ****    0 ROOT
