@<TRIPOS>MOLECULE
S04
   78    81     1     0     0
SMALL
No Charge or Current Charge


@<TRIPOS>ATOM
      1 C7          -5.4640    -0.2780    -0.6650 c3         1 S04      -0.274100
      2 S8          -4.3800    -1.6640    -0.2610 s6         1 S04       1.224100
      3 C6          -6.9460    -0.6300    -0.6550 ca         1 S04      -0.077300
      4 C1          -7.6970    -0.4990     0.5290 ca         1 S04      -0.085500
      5 C2          -9.0650    -0.8200     0.5390 ca         1 S04      -0.109500
      6 C32         -9.6910    -1.2720    -0.6360 ca         1 S04      -0.101000
      7 C4          -8.9460    -1.4020    -1.8200 ca         1 S04      -0.109500
      8 C5          -7.5770    -1.0800    -1.8310 ca         1 S04      -0.085500
      9 O15         -4.5390    -1.9940     1.1580 o          1 S04      -0.531500
     10 O16         -4.4880    -2.7140    -1.2750 o          1 S04      -0.531500
     11 C12         -2.9320     2.1280     0.1980 c6         1 S04      -0.058700
     12 C35         -3.9470     3.1640     0.7670 c6         1 S04      -0.073400
     13 C36         -4.1630     4.3540    -0.1980 c6         1 S04      -0.073400
     14 C37         -2.8240     5.0550    -0.5230 c6         1 S04      -0.075400
     15 C38         -1.8010     4.0470    -1.0950 c6         1 S04      -0.073400
     16 C39         -1.5900     2.8470    -0.1380 c6         1 S04      -0.073400
     17 N9          -2.8390    -1.0350    -0.4220 n7         1 S04      -0.943300
     18 C10         -2.0940    -0.3910     0.7210 c3         1 S04       0.186500
     19 C11         -2.7650     0.9360     1.2060 c3         1 S04      -0.101400
     20 C13         -0.5440    -0.2390     0.4410 c          1 S04       0.612100
     21 O17         -0.0940    -0.2890    -0.7020 o          1 S04      -0.608100
     22 N14          0.3450    -0.0190     1.5230 n          1 S04      -0.393800
     23 C18          1.8010     0.2110     1.3090 c5         1 S04       0.025700
     24 C19          2.5990    -1.0610     0.8680 c          1 S04       0.596100
     25 O20          2.2230    -2.2270     0.8870 o          1 S04      -0.588100
     26 C23          2.2410     0.6450     2.7390 c5         1 S04      -0.082400
     27 C24          1.3780    -0.2790     3.6340 c5         1 S04      -0.095400
     28 C25         -0.0120    -0.1810     2.9540 c5         1 S04       0.109000
     29 N21          3.8420    -0.6820     0.4100 ns         1 S04      -0.502900
     30 C22          4.8610    -1.6170    -0.0630 c3         1 S04       0.141300
     31 C26          6.2100    -0.9250    -0.2220 ca         1 S04      -0.075300
     32 C27          7.0980    -0.7540     0.8720 ca         1 S04      -0.066300
     33 C28          6.7580    -1.2500     2.2780 c3         1 S04       0.194100
     34 N34          7.1310    -2.6660     2.4610 n8         1 S04      -0.991200
     35 C29          8.3320    -0.1010     0.6650 ca         1 S04      -0.107000
     36 C30          8.6840     0.3790    -0.6070 ca         1 S04      -0.098000
     37 C31          7.8040     0.2130    -1.6840 ca         1 S04       0.119000
     38 Cl3          8.2410     0.8170    -3.2770 cl         1 S04      -0.200000
     39 C33          6.5740    -0.4350    -1.4940 ca         1 S04      -0.097000
     40 H7          -5.1650     0.0740    -1.6580 h1         1 S04       0.094200
     41 H7A         -5.2700     0.5070     0.0680 h1         1 S04       0.094200
     42 H1          -7.2200    -0.1500     1.4420 ha         1 S04       0.118500
     43 H2          -9.6410    -0.7180     1.4560 ha         1 S04       0.114500
     44 H32        -10.7500    -1.5200    -0.6280 ha         1 S04       0.113000
     45 H4          -9.4290    -1.7510    -2.7300 ha         1 S04       0.114500
     46 H5          -7.0080    -1.1840    -2.7520 ha         1 S04       0.118500
     47 H12         -3.3490     1.7210    -0.7320 hc         1 S04       0.046700
     48 H35A        -3.5900     3.5390     1.7370 hc         1 S04       0.039700
     49 H36         -4.6320     3.9990    -1.1260 hc         1 S04       0.040700
     50 H36A        -4.8610     5.0750     0.2500 hc         1 S04       0.040700
     51 H37         -2.9910     5.8670    -1.2430 hc         1 S04       0.039700
     52 H37A        -2.4170     5.5200     0.3860 hc         1 S04       0.039700
     53 H38         -2.1480     3.6830    -2.0720 hc         1 S04       0.040700
     54 H38A        -0.8420     4.5520    -1.2750 hc         1 S04       0.040700
     55 H39         -1.1080     3.1930     0.7870 hc         1 S04       0.039700
     56 H39A        -0.8870     2.1580    -0.6150 hc         1 S04       0.039700
     57 HN9         -2.9360    -0.3750    -1.1890 hn         1 S04       0.528000
     58 H10         -2.1340    -1.0840     1.5710 h1         1 S04       0.090700
     59 H11         -3.7440     0.6720     1.6230 hc         1 S04       0.053700
     60 H11A        -2.2140     1.3080     2.0750 hc         1 S04       0.053700
     61 H18          1.9790     1.0080     0.5740 h1         1 S04       0.073700
     62 H23          3.3160     0.5270     2.9180 hc         1 S04       0.056700
     63 H23A         1.9990     1.6990     2.9190 hc         1 S04       0.056700
     64 H24          1.7520    -1.3100     3.6230 hc         1 S04       0.067200
     65 H24A         1.3540     0.0440     4.6810 hc         1 S04       0.067200
     66 H25         -0.5560     0.6960     3.3250 h1         1 S04       0.051700
     67 H25A        -0.6150    -1.0780     3.1450 h1         1 S04       0.051700
     68 HN21         4.0630     0.3060     0.4230 hn         1 S04       0.313500
     69 H22          4.9440    -2.4560     0.6410 h1         1 S04       0.075700
     70 H22A         4.5380    -2.0320    -1.0280 h1         1 S04       0.075700
     71 H28          7.3010    -0.6490     3.0210 h1         1 S04       0.035200
     72 H28A         5.6850    -1.1320     2.4800 h1         1 S04       0.035200
     73 HN34         8.1460    -2.7570     2.3380 hn         1 S04       0.398500
     74 HN3A         6.9790    -2.9260     3.4430 hn         1 S04       0.398500
     75 H29          9.0220     0.0350     1.4960 ha         1 S04       0.114000
     76 H30          9.6370     0.8810    -0.7560 ha         1 S04       0.131000
     77 H33          5.9000    -0.5540    -2.3390 ha         1 S04       0.134000
     78 H35         -4.9140     2.6800     0.9610 hc         1 S04       0.039700
@<TRIPOS>BOND
     1     1     2 1   
     2     1     3 1   
     3     1    40 1   
     4     1    41 1   
     5     2     9 2   
     6     2    10 2   
     7     2    17 1   
     8     3     4 ar  
     9     3     8 ar  
    10     4     5 ar  
    11     4    42 1   
    12     5     6 ar  
    13     5    43 1   
    14     6     7 ar  
    15     6    44 1   
    16     7     8 ar  
    17     7    45 1   
    18     8    46 1   
    19    11    12 1   
    20    11    16 1   
    21    11    19 1   
    22    11    47 1   
    23    12    13 1   
    24    12    48 1   
    25    12    78 1   
    26    13    14 1   
    27    13    49 1   
    28    13    50 1   
    29    14    15 1   
    30    14    51 1   
    31    14    52 1   
    32    15    16 1   
    33    15    53 1   
    34    15    54 1   
    35    16    55 1   
    36    16    56 1   
    37    17    18 1   
    38    17    57 1   
    39    18    19 1   
    40    18    20 1   
    41    18    58 1   
    42    19    59 1   
    43    19    60 1   
    44    20    21 2   
    45    20    22 1   
    46    22    23 1   
    47    22    28 1   
    48    23    24 1   
    49    23    26 1   
    50    23    61 1   
    51    24    25 2   
    52    24    29 1   
    53    26    27 1   
    54    26    62 1   
    55    26    63 1   
    56    27    28 1   
    57    27    64 1   
    58    27    65 1   
    59    28    66 1   
    60    28    67 1   
    61    29    30 1   
    62    29    68 1   
    63    30    31 1   
    64    30    69 1   
    65    30    70 1   
    66    31    32 ar  
    67    31    39 ar  
    68    32    33 1   
    69    32    35 ar  
    70    33    34 1   
    71    33    71 1   
    72    33    72 1   
    73    34    73 1   
    74    34    74 1   
    75    35    36 ar  
    76    35    75 1   
    77    36    37 ar  
    78    36    76 1   
    79    37    38 1   
    80    37    39 ar  
    81    39    77 1   
@<TRIPOS>SUBSTRUCTURE
     1 S04         1 TEMP              0 ****  ****    0 ROOT
