@<TRIPOS>MOLECULE
S04
   78    81     1     0     0
SMALL
bcc


@<TRIPOS>ATOM
      1 C7          -5.1610    -0.2260    -0.7610 c3         1 S04      -0.163300
      2 S8          -3.9640    -1.4540    -0.2020 s6         1 S04       1.254900
      3 C6          -6.5060    -0.8630    -0.9140 ca         1 S04      -0.077300
      4 C1          -7.3720    -0.9430     0.1730 ca         1 S04      -0.103500
      5 C2          -8.6110    -1.5530     0.0400 ca         1 S04      -0.127500
      6 C32         -8.9920    -2.0950    -1.1810 ca         1 S04      -0.119000
      7 C4          -8.1300    -2.0210    -2.2680 ca         1 S04      -0.127500
      8 C5          -6.8910    -1.4120    -2.1340 ca         1 S04      -0.103500
      9 O15         -4.3230    -1.8440     1.1560 o          1 S04      -0.602300
     10 O16         -3.8960    -2.4680    -1.2430 o          1 S04      -0.602300
     11 C12         -2.7380     2.3220     0.4870 c6         1 S04      -0.058700
     12 C35         -3.8950     3.2480     0.8740 c6         1 S04      -0.073400
     13 C36         -4.0470     4.4260    -0.0810 c6         1 S04      -0.073400
     14 C37         -2.7510     5.2230    -0.1840 c6         1 S04      -0.075400
     15 C38         -1.5900     4.3170    -0.5740 c6         1 S04      -0.073400
     16 C39         -1.4440     3.1350     0.3820 c6         1 S04      -0.073400
     17 N9          -2.5190    -0.7170    -0.1310 n7         1 S04      -0.888100
     18 C10         -1.9550    -0.1160     1.0630 c3         1 S04       0.186500
     19 C11         -2.6660     1.1750     1.4970 c3         1 S04      -0.101400
     20 C13         -0.4650     0.0640     0.7840 c          1 S04       0.679100
     21 O17         -0.0200    -0.0110    -0.3560 o          1 S04      -0.608100
     22 N14          0.3310     0.3220     1.8290 n          1 S04      -0.460800
     23 C18          1.7520     0.5070     1.6020 c5         1 S04       0.025700
     24 C19          2.3880    -0.7770     1.0770 c          1 S04       0.663100
     25 O20          1.9960    -1.8800     1.4200 o          1 S04      -0.588100
     26 C23          2.2910     0.8450     2.9990 c5         1 S04      -0.082400
     27 C24          1.3260     0.1290     3.9380 c5         1 S04      -0.095400
     28 C25         -0.0160     0.3270     3.2490 c5         1 S04       0.109000
     29 N21          3.4540    -0.5790     0.2890 ns         1 S04      -0.569900
     30 C22          4.2770    -1.6580    -0.2220 c3         1 S04       0.141300
     31 C26          5.6650    -1.1580    -0.5220 ca         1 S04      -0.075300
     32 C27          6.5890    -0.9090     0.5020 ca         1 S04      -0.066300
     33 C28          6.2750    -1.2020     1.9460 c3         1 S04       0.194100
     34 N34          6.2440    -2.6390     2.1820 n8         1 S04      -0.880800
     35 C29          7.8440    -0.4190     0.1620 ca         1 S04      -0.125000
     36 C30          8.2020    -0.1680    -1.1570 ca         1 S04      -0.116000
     37 C31          7.2750    -0.4190    -2.1510 ca         1 S04       0.027400
     38 CL3          7.6880    -0.1170    -3.8080 cl         1 S04      -0.108400
     39 C33          6.0140    -0.9080    -1.8430 ca         1 S04      -0.115000
     40 H7          -4.7800     0.1710    -1.7040 h1         1 S04       0.094200
     41 H7A         -5.1720     0.5790    -0.0270 h1         1 S04       0.094200
     42 H1          -7.0820    -0.5190     1.1270 ha         1 S04       0.136500
     43 H2          -9.2790    -1.6070     0.8890 ha         1 S04       0.132500
     44 H32         -9.9580    -2.5710    -1.2860 ha         1 S04       0.131000
     45 H4          -8.4240    -2.4390    -3.2220 ha         1 S04       0.132500
     46 H5          -6.2240    -1.3550    -2.9850 ha         1 S04       0.136500
     47 H12         -2.9640     1.9120    -0.5070 hc         1 S04       0.046700
     48 H35A        -3.7280     3.6210     1.8910 hc         1 S04       0.039700
     49 H36         -4.3210     4.0520    -1.0740 hc         1 S04       0.040700
     50 H36A        -4.8670     5.0690     0.2470 hc         1 S04       0.040700
     51 H37         -2.8600     6.0350    -0.9070 hc         1 S04       0.039700
     52 H37A        -2.5360     5.6910     0.7830 hc         1 S04       0.039700
     53 H38         -1.7490     3.9390    -1.5900 hc         1 S04       0.040700
     54 H38A        -0.6570     4.8860    -0.6000 hc         1 S04       0.040700
     55 H39         -1.1790     3.5040     1.3800 hc         1 S04       0.039700
     56 H39A        -0.6120     2.5170     0.0450 hc         1 S04       0.039700
     57 HN9         -2.0480    -0.5410    -1.0110 hn         1 S04       0.472800
     58 H10         -2.0530    -0.8340     1.8820 h1         1 S04       0.090700
     59 H11         -3.6820     0.8740     1.7730 hc         1 S04       0.053700
     60 H11A        -2.2270     1.5370     2.4290 hc         1 S04       0.053700
     61 H18          1.9270     1.3270     0.9000 h1         1 S04       0.073700
     62 H23          3.3310     0.5480     3.1320 hc         1 S04       0.056700
     63 H23A         2.2370     1.9250     3.1510 hc         1 S04       0.056700
     64 H24          1.5680    -0.9310     4.0120 hc         1 S04       0.067200
     65 H24A         1.3280     0.5460     4.9440 hc         1 S04       0.067200
     66 H25         -0.4470     1.2890     3.5370 h1         1 S04       0.051700
     67 H25A        -0.7390    -0.4520     3.4880 h1         1 S04       0.051700
     68 HN21         3.6570     0.3560    -0.0290 hn         1 S04       0.313500
     69 H22          4.3230    -2.4510     0.5240 h1         1 S04       0.075700
     70 H22A         3.8340    -2.0830    -1.1270 h1         1 S04       0.075700
     71 H28          6.9980    -0.6680     2.5750 h1         1 S04       0.035200
     72 H28A         5.2940    -0.7960     2.2010 h1         1 S04       0.035200
     73 HN34         7.1840    -3.0100     2.1120 hn         1 S04       0.343300
     74 HN3A         5.9450    -2.8140     3.1330 hn         1 S04       0.343300
     75 H29          8.5690    -0.2280     0.9440 ha         1 S04       0.132000
     76 H30          9.1850     0.2140    -1.3970 ha         1 S04       0.149000
     77 H33          5.2980    -1.0950    -2.6330 ha         1 S04       0.152000
     78 H35         -4.8280     2.6770     0.9120 hc         1 S04       0.039700
@<TRIPOS>BOND
     1     1     2 1   
     2     1     3 1   
     3     1    40 1   
     4     1    41 1   
     5     2     9 2   
     6     2    10 2   
     7     2    17 1   
     8     3     4 ar  
     9     3     8 ar  
    10     4     5 ar  
    11     4    42 1   
    12     5     6 ar  
    13     5    43 1   
    14     6     7 ar  
    15     6    44 1   
    16     7     8 ar  
    17     7    45 1   
    18     8    46 1   
    19    11    12 1   
    20    11    16 1   
    21    11    19 1   
    22    11    47 1   
    23    12    13 1   
    24    12    48 1   
    25    12    78 1   
    26    13    14 1   
    27    13    49 1   
    28    13    50 1   
    29    14    15 1   
    30    14    51 1   
    31    14    52 1   
    32    15    16 1   
    33    15    53 1   
    34    15    54 1   
    35    16    55 1   
    36    16    56 1   
    37    17    18 1   
    38    17    57 1   
    39    18    19 1   
    40    18    20 1   
    41    18    58 1   
    42    19    59 1   
    43    19    60 1   
    44    20    21 2   
    45    20    22 1   
    46    22    23 1   
    47    22    28 1   
    48    23    24 1   
    49    23    26 1   
    50    23    61 1   
    51    24    25 2   
    52    24    29 1   
    53    26    27 1   
    54    26    62 1   
    55    26    63 1   
    56    27    28 1   
    57    27    64 1   
    58    27    65 1   
    59    28    66 1   
    60    28    67 1   
    61    29    30 1   
    62    29    68 1   
    63    30    31 1   
    64    30    69 1   
    65    30    70 1   
    66    31    32 ar  
    67    31    39 ar  
    68    32    33 1   
    69    32    35 ar  
    70    33    34 1   
    71    33    71 1   
    72    33    72 1   
    73    34    73 1   
    74    34    74 1   
    75    35    36 ar  
    76    35    75 1   
    77    36    37 ar  
    78    36    76 1   
    79    37    38 1   
    80    37    39 ar  
    81    39    77 1   
@<TRIPOS>SUBSTRUCTURE
     1 S04         1 TEMP              0 ****  ****    0 ROOT
