@<TRIPOS>MOLECULE
S05
   45    48     1     0     0
SMALL
No Charge or Current Charge


@<TRIPOS>ATOM
      1 C1           4.2770    -0.3440    -0.4710 ca         1 S05      -0.113300
      2 C2           4.5810    -1.7960    -0.0850 c6         1 S05      -0.025100
      3 C3           3.4600    -2.4400     0.7520 c6         1 S05      -0.104400
      4 C4           2.0810    -2.0830     0.1700 c6         1 S05       0.102000
      5 N5           1.8860    -0.6090     0.1730 n          1 S05      -0.242400
      6 C6           2.9570     0.1750    -0.4110 ca         1 S05      -0.018000
      7 C13          2.7460     1.5270    -0.7670 ca         1 S05      -0.114000
      8 C14          3.8040     2.3240    -1.2340 ca         1 S05      -0.092000
      9 C15          5.0960     1.7900    -1.3270 ca         1 S05      -0.126000
     10 C16          5.3310     0.4610    -0.9450 ca         1 S05      -0.094000
     11 C21          0.8450    -0.0400     0.9580 c          1 S05       0.647100
     12 O22          1.0240     1.0060     1.5720 o          1 S05      -0.599100
     13 N23         -0.4090    -0.6990     1.0480 n          1 S05      -0.404800
     14 C24         -0.9780    -1.5380    -0.0470 c6         1 S05       0.095000
     15 C25         -2.1900    -0.8420    -0.7120 c6         1 S05      -0.102900
     16 C26         -3.2690    -0.4640     0.3360 c6         1 S05       0.015600
     17 C27         -2.6300     0.4010     1.4500 c6         1 S05      -0.102900
     18 C28         -1.4160    -0.3220     2.0770 c6         1 S05       0.095000
     19 C38         -4.4420     0.2670    -0.2820 cc         1 S05      -0.200300
     20 N39         -5.6990     0.4040     0.2680 na         1 S05      -0.302500
     21 C40         -6.4690     1.1280    -0.6090 cc         1 S05       0.390400
     22 N41         -5.7650     1.4520    -1.6850 nd         1 S05      -0.671000
     23 C42         -4.5040     0.9200    -1.4910 cd         1 S05       0.236900
     24 H2           4.7270    -2.3800    -1.0040 hc         1 S05       0.050200
     25 H2A          5.5290    -1.8520     0.4680 hc         1 S05       0.050200
     26 H3           3.5900    -3.5300     0.7850 hc         1 S05       0.053200
     27 H3A          3.5200    -2.0830     1.7890 hc         1 S05       0.053200
     28 H4           1.9990    -2.4590    -0.8600 h1         1 S05       0.055700
     29 H4A          1.3150    -2.5830     0.7770 h1         1 S05       0.055700
     30 H13          1.7530     1.9640    -0.7050 ha         1 S05       0.120000
     31 H14          3.6200     3.3570    -1.5210 ha         1 S05       0.114000
     32 H15          5.9160     2.4060    -1.6890 ha         1 S05       0.113000
     33 H16          6.3380     0.0540    -1.0150 ha         1 S05       0.108000
     34 H24         -0.2360    -1.7300    -0.8330 h1         1 S05       0.059200
     35 H24A        -1.2860    -2.5100     0.3640 h1         1 S05       0.059200
     36 H25         -1.8340     0.0580    -1.2310 hc         1 S05       0.058200
     37 H25A        -2.6210    -1.5010    -1.4780 hc         1 S05       0.058200
     38 H26         -3.6350    -1.3950     0.7940 hc         1 S05       0.047700
     39 H27         -2.3080     1.3670     1.0370 hc         1 S05       0.058200
     40 H27A        -3.3700     0.6220     2.2300 hc         1 S05       0.058200
     41 H28         -1.7610    -1.2360     2.5830 h1         1 S05       0.059200
     42 H28A        -0.9660     0.3160     2.8500 h1         1 S05       0.059200
     43 H40         -7.5050     1.3780    -0.4120 h5         1 S05       0.054100
     44 H42         -3.7220     1.0410    -2.2300 h4         1 S05       0.037100
     45 HN39        -6.0190     0.0430     1.1580 hn         1 S05       0.348000
@<TRIPOS>BOND
     1     1     2 1   
     2     1     6 ar  
     3     1    10 ar  
     4     2     3 1   
     5     2    24 1   
     6     2    25 1   
     7     3     4 1   
     8     3    26 1   
     9     3    27 1   
    10     4     5 1   
    11     4    28 1   
    12     4    29 1   
    13     5     6 1   
    14     5    11 1   
    15     6     7 ar  
    16     7     8 ar  
    17     7    30 1   
    18     8     9 ar  
    19     8    31 1   
    20     9    10 ar  
    21     9    32 1   
    22    10    33 1   
    23    11    12 2   
    24    11    13 1   
    25    13    14 1   
    26    13    18 1   
    27    14    15 1   
    28    14    34 1   
    29    14    35 1   
    30    15    16 1   
    31    15    36 1   
    32    15    37 1   
    33    16    17 1   
    34    16    19 1   
    35    16    38 1   
    36    17    18 1   
    37    17    39 1   
    38    17    40 1   
    39    18    41 1   
    40    18    42 1   
    41    19    20 1   
    42    19    23 2   
    43    20    21 1   
    44    20    45 1   
    45    21    22 2   
    46    21    43 1   
    47    22    23 1   
    48    23    44 1   
@<TRIPOS>SUBSTRUCTURE
     1 S05         1 TEMP              0 ****  ****    0 ROOT
