@<TRIPOS>MOLECULE
S05
   45    48     1     0     0
SMALL
abcg2


@<TRIPOS>ATOM
      1 C1           4.0510    -0.2500    -0.3930 ca         1 S05      -0.113300
      2 C2           4.5290    -1.5740     0.1460 c6         1 S05      -0.025100
      3 C3           3.4490    -2.3160     0.9160 c6         1 S05      -0.104400
      4 C4           2.1200    -2.1880     0.1910 c6         1 S05       0.102000
      5 N5           1.7270    -0.7820     0.1180 n          1 S05      -0.242400
      6 C6           2.6990     0.1050    -0.3830 ca         1 S05      -0.018000
      7 C13          2.3010     1.3230    -0.9410 ca         1 S05      -0.114000
      8 C14          3.2310     2.1950    -1.4740 ca         1 S05      -0.092000
      9 C15          4.5800     1.8560    -1.4790 ca         1 S05      -0.126000
     10 C16          4.9710     0.6390    -0.9490 ca         1 S05      -0.094000
     11 C21          0.7570    -0.2810     0.9840 c          1 S05       0.647100
     12 O22          0.9290     0.7480     1.6190 o          1 S05      -0.599100
     13 N23         -0.3750    -1.0340     1.0840 n          1 S05      -0.404800
     14 C24         -0.9600    -1.7270    -0.0570 c6         1 S05       0.095000
     15 C25         -2.0280    -0.8660    -0.7240 c6         1 S05      -0.102900
     16 C26         -3.0980    -0.4380     0.2780 c6         1 S05       0.015600
     17 C27         -2.4400     0.2430     1.4850 c6         1 S05      -0.102900
     18 C28         -1.3660    -0.6580     2.0790 c6         1 S05       0.095000
     19 C38         -4.1300     0.4320    -0.3570 cc         1 S05      -0.200300
     20 N39         -5.2990     0.7720     0.2690 na         1 S05      -0.302500
     21 C40         -5.9950     1.5830    -0.5550 cc         1 S05       0.390400
     22 N41         -5.3530     1.7920    -1.6740 nd         1 S05      -0.671000
     23 C42         -4.1890     1.0790    -1.5620 cd         1 S05       0.236900
     24 H2           4.8650    -2.1900    -0.6940 hc         1 S05       0.050200
     25 H2A          5.4100    -1.4190     0.7730 hc         1 S05       0.050200
     26 H3           3.7140    -3.3690     1.0190 hc         1 S05       0.053200
     27 H3A          3.3440    -1.9120     1.9260 hc         1 S05       0.053200
     28 H4           2.1980    -2.5960    -0.8210 h1         1 S05       0.055700
     29 H4A          1.3490    -2.7500     0.7110 h1         1 S05       0.055700
     30 H13          1.2510     1.5840    -0.9720 ha         1 S05       0.120000
     31 H14          2.9010     3.1340    -1.9000 ha         1 S05       0.114000
     32 H15          5.3160     2.5300    -1.8990 ha         1 S05       0.113000
     33 H16          6.0190     0.3630    -0.9550 ha         1 S05       0.108000
     34 H24         -0.1960    -1.9860    -0.7840 h1         1 S05       0.059200
     35 H24A        -1.4010    -2.6630     0.2970 h1         1 S05       0.059200
     36 H25         -1.5510     0.0150    -1.1640 hc         1 S05       0.058200
     37 H25A        -2.4770    -1.4320    -1.5440 hc         1 S05       0.058200
     38 H26         -3.5920    -1.3500     0.6430 hc         1 S05       0.047700
     39 H27         -1.9960     1.1940     1.1750 hc         1 S05       0.058200
     40 H27A        -3.1850     0.4650     2.2530 hc         1 S05       0.058200
     41 H28         -1.8280    -1.5800     2.4470 h1         1 S05       0.059200
     42 H28A        -0.8780    -0.1820     2.9250 h1         1 S05       0.059200
     43 H40         -6.9600     1.9860    -0.2880 h5         1 S05       0.054100
     44 H42         -3.4540     1.0690    -2.3520 h4         1 S05       0.037100
     45 HN39        -5.5990     0.4620     1.1790 hn         1 S05       0.348000
@<TRIPOS>BOND
     1     1     2 1   
     2     1     6 ar  
     3     1    10 ar  
     4     2     3 1   
     5     2    24 1   
     6     2    25 1   
     7     3     4 1   
     8     3    26 1   
     9     3    27 1   
    10     4     5 1   
    11     4    28 1   
    12     4    29 1   
    13     5     6 1   
    14     5    11 1   
    15     6     7 ar  
    16     7     8 ar  
    17     7    30 1   
    18     8     9 ar  
    19     8    31 1   
    20     9    10 ar  
    21     9    32 1   
    22    10    33 1   
    23    11    12 2   
    24    11    13 1   
    25    13    14 1   
    26    13    18 1   
    27    14    15 1   
    28    14    34 1   
    29    14    35 1   
    30    15    16 1   
    31    15    36 1   
    32    15    37 1   
    33    16    17 1   
    34    16    19 1   
    35    16    38 1   
    36    17    18 1   
    37    17    39 1   
    38    17    40 1   
    39    18    41 1   
    40    18    42 1   
    41    19    20 1   
    42    19    23 2   
    43    20    21 1   
    44    20    45 1   
    45    21    22 2   
    46    21    43 1   
    47    22    23 1   
    48    23    44 1   
@<TRIPOS>SUBSTRUCTURE
     1 S05         1 TEMP              0 ****  ****    0 ROOT
