@<TRIPOS>MOLECULE
S06
   46    49     1     0     0
SMALL
abcg2


@<TRIPOS>ATOM
      1 C10         35.9110    24.8030    30.5140 ca         1 S06      -0.090000
      2 C11         36.6620    25.4780    31.5030 ca         1 S06      -0.038000
      3 C12         37.6680    26.4200    31.1690 ca         1 S06      -0.097000
      4 C13         38.3820    27.0590    32.1490 ca         1 S06      -0.105000
      5 C14         38.1270    26.7870    33.5130 ca         1 S06      -0.102000
      6 C15         37.1610    25.8810    33.8690 ca         1 S06      -0.099000
      7 C16         36.4030    25.2050    32.8800 ca         1 S06      -0.030000
      8 C17         35.3940    24.2690    33.2060 ca         1 S06      -0.095000
      9 C18         34.6790    23.6380    32.2210 ca         1 S06      -0.088000
     10 C9          34.9340    23.8960    30.8520 ca         1 S06      -0.089300
     11 C8          34.1040    23.1940    29.8070 c5         1 S06       0.152800
     12 C7          34.8400    22.6160    28.5960 c5         1 S06      -0.103400
     13 N1          33.1370    24.1370    29.2060 n7         1 S06      -0.529900
     14 O7          32.7900    23.5520    27.9180 os         1 S06      -0.313300
     15 C1          33.7180    22.5040    27.5800 c5         1 S06       0.321000
     16 O5          33.1070    21.2440    27.7540 os         1 S06      -0.441000
     17 C5          31.9440    21.0040    26.9530 c6         1 S06       0.112300
     18 C6          31.3670    19.6590    27.3610 c3         1 S06       0.171600
     19 O6          32.2310    18.5550    27.1010 oh         1 S06      -0.710000
     20 C4          32.3260    21.0930    25.4760 c6         1 S06       0.094300
     21 O4          31.2130    20.8580    24.6160 oh         1 S06      -0.719000
     22 C3          32.9670    22.4440    25.1760 c6         1 S06       0.115300
     23 O3          33.4500    22.4940    23.8390 oh         1 S06      -0.641000
     24 C2          34.1370    22.7100    26.1150 c6         1 S06       0.162300
     25 O2          34.6990    23.9970    25.9230 oh         1 S06      -0.694000
     26 H10         36.1170    25.0330    29.4750 ha         1 S06       0.112000
     27 H12         37.8610    26.6260    30.1230 ha         1 S06       0.115000
     28 H13         39.1480    27.7770    31.8830 ha         1 S06       0.115000
     29 H14         38.7000    27.2990    34.2760 ha         1 S06       0.115000
     30 H15         36.9610    25.6700    34.9130 ha         1 S06       0.115000
     31 H17         35.1910    24.0600    34.2490 ha         1 S06       0.118000
     32 H18         33.9060    22.9260    32.4820 ha         1 S06       0.119000
     33 H8          33.5370    22.3950    30.2860 h1         1 S06       0.098700
     34 H71         35.2910    21.6460    28.7900 hc         1 S06       0.085700
     35 H72         35.5990    23.3040    28.2280 hc         1 S06       0.085700
     36 HN1         33.6610    24.9740    28.9450 hn         1 S06       0.392000
     37 H5          31.1860    21.7670    27.1730 h1         1 S06       0.059700
     38 H61         30.4040    19.5270    26.8600 h1         1 S06       0.058200
     39 H62         31.1950    19.6690    28.4370 h1         1 S06       0.058200
     40 HO6         32.1920    18.3440    26.1600 ho         1 S06       0.502000
     41 H4          33.0490    20.3090    25.2410 h1         1 S06       0.098700
     42 HO4         30.5300    21.5170    24.8040 ho         1 S06       0.504000
     43 H3          32.2090    23.2260    25.3280 h1         1 S06       0.041700
     44 HO3         32.7250    22.2140    23.2640 ho         1 S06       0.453000
     45 H2          34.9310    21.9950    25.8930 h1         1 S06       0.101700
     46 HO2         34.0370    24.6480    26.1950 ho         1 S06       0.508000
@<TRIPOS>BOND
     1     1     2 ar  
     2     1    10 ar  
     3     1    26 1   
     4     2     3 ar  
     5     2     7 ar  
     6     3     4 ar  
     7     3    27 1   
     8     4     5 ar  
     9     4    28 1   
    10     5     6 ar  
    11     5    29 1   
    12     6     7 ar  
    13     6    30 1   
    14     7     8 ar  
    15     8     9 ar  
    16     8    31 1   
    17     9    10 ar  
    18     9    32 1   
    19    10    11 1   
    20    11    12 1   
    21    11    13 1   
    22    11    33 1   
    23    12    15 1   
    24    12    34 1   
    25    12    35 1   
    26    13    14 1   
    27    13    36 1   
    28    14    15 1   
    29    15    16 1   
    30    15    24 1   
    31    16    17 1   
    32    17    18 1   
    33    17    20 1   
    34    17    37 1   
    35    18    19 1   
    36    18    38 1   
    37    18    39 1   
    38    19    40 1   
    39    20    21 1   
    40    20    22 1   
    41    20    41 1   
    42    21    42 1   
    43    22    23 1   
    44    22    24 1   
    45    22    43 1   
    46    23    44 1   
    47    24    25 1   
    48    24    45 1   
    49    25    46 1   
@<TRIPOS>SUBSTRUCTURE
     1 S06         1 TEMP              0 ****  ****    0 ROOT
