@<TRIPOS>MOLECULE
S06
   46    49     1     0     0
SMALL
No Charge or Current Charge


@<TRIPOS>ATOM
      1 C10         35.6790    25.1110    30.5980 ca         1 S06      -0.090000
      2 C11         36.5590    25.5920    31.5870 ca         1 S06      -0.038000
      3 C12         37.4290    26.6620    31.3030 ca         1 S06      -0.097000
      4 C13         38.3060    27.1380    32.2930 ca         1 S06      -0.105000
      5 C14         38.3160    26.5480    33.5690 ca         1 S06      -0.102000
      6 C15         37.4490    25.4800    33.8560 ca         1 S06      -0.099000
      7 C16         36.5690    24.9990    32.8670 ca         1 S06      -0.030000
      8 C17         35.6990    23.9320    33.1470 ca         1 S06      -0.095000
      9 C18         34.8240    23.4560    32.1560 ca         1 S06      -0.088000
     10 C9          34.8030    24.0360    30.8710 ca         1 S06      -0.089300
     11 C8          33.8370    23.4920    29.8150 c5         1 S06       0.152800
     12 C7          34.6720    22.8560    28.6860 c5         1 S06      -0.103400
     13 N1          33.0770    24.5240    29.0880 n7         1 S06      -0.529900
     14 O7          32.6450    23.8310    27.8670 os         1 S06      -0.313300
     15 C1          33.5750    22.7340    27.5980 c5         1 S06       0.321000
     16 O5          32.8590    21.5030    27.9040 os         1 S06      -0.441000
     17 C5          31.8420    21.0390    26.9700 c6         1 S06       0.112300
     18 C6          31.3480    19.6300    27.4440 c3         1 S06       0.171600
     19 O6          32.3970    18.6400    27.5340 oh         1 S06      -0.710000
     20 C4          32.3320    21.0620    25.4850 c6         1 S06       0.094300
     21 O4          31.2690    20.7360    24.5610 oh         1 S06      -0.719000
     22 C3          32.9450    22.4420    25.1350 c6         1 S06       0.115300
     23 O3          33.4260    22.4360    23.7800 oh         1 S06      -0.641000
     24 C2          34.1050    22.7330    26.1180 c6         1 S06       0.162300
     25 O2          34.7750    23.9580    25.7400 oh         1 S06      -0.694000
     26 H10         35.6820    25.5750    29.6150 ha         1 S06       0.112000
     27 H12         37.4290    27.1240    30.3190 ha         1 S06       0.115000
     28 H13         38.9780    27.9650    32.0720 ha         1 S06       0.115000
     29 H14         38.9950    26.9180    34.3340 ha         1 S06       0.115000
     30 H15         37.4620    25.0280    34.8460 ha         1 S06       0.115000
     31 H17         35.6990    23.4680    34.1310 ha         1 S06       0.118000
     32 H18         34.1580    22.6280    32.3900 ha         1 S06       0.119000
     33 H8          33.1480    22.7540    30.2530 h1         1 S06       0.098700
     34 H71         35.0980    21.8880    28.9730 hc         1 S06       0.085700
     35 H72         35.4980    23.4940    28.3530 hc         1 S06       0.085700
     36 HN1         33.7240    25.2510    28.7560 hn         1 S06       0.392000
     37 H5          30.9870    21.7270    27.0530 h1         1 S06       0.059700
     38 H61         30.5530    19.2890    26.7660 h1         1 S06       0.058200
     39 H62         30.8820    19.7630    28.4300 h1         1 S06       0.058200
     40 HO6         32.5820    18.3320    26.6170 ho         1 S06       0.502000
     41 H4          33.1360    20.3130    25.3940 h1         1 S06       0.098700
     42 HO4         30.5410    21.3900    24.6920 ho         1 S06       0.504000
     43 H3          32.1720    23.2160    25.2560 h1         1 S06       0.041700
     44 HO3         32.8030    21.8530    23.2850 ho         1 S06       0.453000
     45 H2          34.8180    21.8970    26.0410 h1         1 S06       0.101700
     46 HO2         34.6980    23.9810    24.7560 ho         1 S06       0.508000
@<TRIPOS>BOND
     1     1     2 ar  
     2     1    10 ar  
     3     1    26 1   
     4     2     3 ar  
     5     2     7 ar  
     6     3     4 ar  
     7     3    27 1   
     8     4     5 ar  
     9     4    28 1   
    10     5     6 ar  
    11     5    29 1   
    12     6     7 ar  
    13     6    30 1   
    14     7     8 ar  
    15     8     9 ar  
    16     8    31 1   
    17     9    10 ar  
    18     9    32 1   
    19    10    11 1   
    20    11    12 1   
    21    11    13 1   
    22    11    33 1   
    23    12    15 1   
    24    12    34 1   
    25    12    35 1   
    26    13    14 1   
    27    13    36 1   
    28    14    15 1   
    29    15    16 1   
    30    15    24 1   
    31    16    17 1   
    32    17    18 1   
    33    17    20 1   
    34    17    37 1   
    35    18    19 1   
    36    18    38 1   
    37    18    39 1   
    38    19    40 1   
    39    20    21 1   
    40    20    22 1   
    41    20    41 1   
    42    21    42 1   
    43    22    23 1   
    44    22    24 1   
    45    22    43 1   
    46    23    44 1   
    47    24    25 1   
    48    24    45 1   
    49    25    46 1   
@<TRIPOS>SUBSTRUCTURE
     1 S06         1 TEMP              0 ****  ****    0 ROOT
