@<TRIPOS>MOLECULE
S07
   37    38     1     0     0
SMALL
bcc


@<TRIPOS>ATOM
      1 N1           5.8810    21.9570    -0.7380 n          1 S07      -0.488800
      2 C4          10.4680    23.0310     1.4620 ca         1 S07      -0.214000
      3 C5           9.4440    23.9180     1.7620 ca         1 S07       0.130100
      4 C6           9.6830    25.0170     2.6030 ca         1 S07      -0.090300
      5 C7          10.9590    25.1820     3.1160 ca         1 S07      -0.099000
      6 C8           8.5770    25.9740     2.9350 c3         1 S07      -0.036800
      7 C10          6.3750    22.8740     0.1170 c          1 S07       0.677100
      8 C13          5.9250    19.5810    -1.2460 c6         1 S07       0.112900
      9 C11          4.4940    22.0060    -1.1700 c6         1 S07       0.062500
     10 C12          3.8620    20.6330    -1.0260 c6         1 S07       0.112900
     11 C14          6.6440    20.9110    -1.3970 c6         1 S07       0.062500
     12 C2          12.0080    24.3030     2.8330 ca         1 S07      -0.105300
     13 C3          11.7380    23.2290     2.0000 ca         1 S07      -0.096000
     14 C9           7.8580    22.7480     0.4510 c3         1 S07       0.058400
     15 O1           8.1780    23.8140     1.2970 os         1 S07      -0.289900
     16 O2           5.7000    23.7590     0.6120 o          1 S07      -0.566100
     17 O3           4.5990    19.6480    -1.7180 os         1 S07      -0.395600
     18 H1          10.3060    22.1780     0.8160 ha         1 S07       0.128000
     19 H2          11.1450    26.0300     3.7670 ha         1 S07       0.131000
     20 H3           7.7710    25.4830     3.4830 hc         1 S07       0.046700
     21 H4           8.9470    26.7920     3.5520 hc         1 S07       0.046700
     22 H5           8.1300    26.4050     2.0390 hc         1 S07       0.046700
     23 H6           5.9460    19.2770    -0.1900 h1         1 S07       0.055200
     24 H7           6.4430    18.8160    -1.8260 h1         1 S07       0.055200
     25 H8          13.8610    25.3980     2.9360 hc         1 S07       0.039700
     26 H9          13.3360    24.7390     4.4750 hc         1 S07       0.039700
     27 H10         14.0260    23.6760     3.2520 hc         1 S07       0.039700
     28 H11          4.4520    22.3310    -2.2150 h1         1 S07       0.061700
     29 H12          3.9460    22.7300    -0.5730 h1         1 S07       0.061700
     30 H13          2.8560    20.6450    -1.4470 h1         1 S07       0.055200
     31 H14          3.7820    20.3780     0.0400 h1         1 S07       0.055200
     32 H15          7.6410    20.8110    -0.9760 h1         1 S07       0.061700
     33 H16          6.7610    21.1580    -2.4570 h1         1 S07       0.061700
     34 H17         12.5220    22.5230     1.7570 ha         1 S07       0.127000
     35 H18          8.0520    21.7820     0.9350 h1         1 S07       0.047700
     36 H19          8.4550    22.7770    -0.4690 h1         1 S07       0.047700
     37 C1          13.3770    24.5380     3.4030 c3         1 S07      -0.039800
@<TRIPOS>BOND
     1     1     7 1   
     2     1     9 1   
     3     1    11 1   
     4     2     3 ar  
     5     2    13 ar  
     6     2    18 1   
     7     3     4 ar  
     8     3    15 1   
     9     4     5 ar  
    10     4     6 1   
    11     5    12 ar  
    12     5    19 1   
    13     6    20 1   
    14     6    21 1   
    15     6    22 1   
    16     7    14 1   
    17     7    16 2   
    18     8    11 1   
    19     8    17 1   
    20     8    23 1   
    21     8    24 1   
    22     9    10 1   
    23     9    28 1   
    24     9    29 1   
    25    10    17 1   
    26    10    30 1   
    27    10    31 1   
    28    11    32 1   
    29    11    33 1   
    30    12    13 ar  
    31    12    37 1   
    32    13    34 1   
    33    14    15 1   
    34    14    35 1   
    35    14    36 1   
    36    25    37 1   
    37    26    37 1   
    38    27    37 1   
@<TRIPOS>SUBSTRUCTURE
     1 S07         1 TEMP              0 ****  ****    0 ROOT
