@<TRIPOS>MOLECULE
S07
   37    38     1     0     0
SMALL
No Charge or Current Charge


@<TRIPOS>ATOM
      1 N1           5.7150    21.7390    -0.4630 n          1 S07      -0.421800
      2 C4          10.4910    23.0660     1.6270 ca         1 S07      -0.196000
      3 C5           9.4990    24.0410     1.8760 ca         1 S07       0.130100
      4 C6           9.8260    25.1940     2.6230 ca         1 S07      -0.090300
      5 C7          11.1370    25.3600     3.1120 ca         1 S07      -0.081000
      6 C8           8.7730    26.2610     2.9030 c3         1 S07      -0.036800
      7 C10          6.2800    22.8400     0.2300 c          1 S07       0.610100
      8 C13          5.8530    19.4870    -1.7040 c6         1 S07       0.136100
      9 C11          4.2840    21.8050    -0.9090 c6         1 S07       0.062500
     10 C12          3.6950    20.4680    -1.4260 c6         1 S07       0.136100
     11 C14          6.5840    20.7580    -1.1980 c6         1 S07       0.062500
     12 C2          12.1230    24.3870     2.8650 ca         1 S07      -0.105300
     13 C3          11.7950    23.2420     2.1190 ca         1 S07      -0.078000
     14 C9           7.7770    22.7590     0.6340 c3         1 S07       0.081600
     15 O1           8.2050    23.9040     1.4080 os         1 S07      -0.313100
     16 O2           5.5800    23.8020     0.5360 o          1 S07      -0.566100
     17 O3           4.6090    19.8330    -2.3380 os         1 S07      -0.442000
     18 H1          10.2710    22.1700     1.0550 ha         1 S07       0.110000
     19 H2          11.3930    26.2480     3.6860 ha         1 S07       0.113000
     20 H3           7.9280    25.8410     3.4620 hc         1 S07       0.046700
     21 H4           9.1780    27.0920     3.4930 hc         1 S07       0.046700
     22 H5           8.3810    26.6800     1.9690 hc         1 S07       0.046700
     23 H6           5.6520    18.8100    -0.8610 h1         1 S07       0.055200
     24 H7           6.4890    18.9510    -2.4230 h1         1 S07       0.055200
     25 H8          14.1490    25.1380     2.6800 hc         1 S07       0.039700
     26 H9          13.5370    25.1300     4.3420 hc         1 S07       0.039700
     27 H10         14.0300    23.6150     3.5770 hc         1 S07       0.039700
     28 H11          4.2050    22.5530    -1.7110 h1         1 S07       0.061700
     29 H12          3.6580    22.1590    -0.0780 h1         1 S07       0.061700
     30 H13          2.7400    20.6530    -1.9380 h1         1 S07       0.055200
     31 H14          3.5010    19.7920    -0.5800 h1         1 S07       0.055200
     32 H15          7.4100    20.4300    -0.5520 h1         1 S07       0.061700
     33 H16          7.0320    21.2690    -2.0620 h1         1 S07       0.061700
     34 H17         12.5510    22.4850     1.9200 ha         1 S07       0.109000
     35 H18          7.9120    21.8350     1.2110 h1         1 S07       0.047700
     36 H19          8.3660    22.6800    -0.2880 h1         1 S07       0.047700
     37 C1          13.5370    24.5770     3.3950 c3         1 S07      -0.039800
@<TRIPOS>BOND
     1     1     7 1   
     2     1     9 1   
     3     1    11 1   
     4     2     3 ar  
     5     2    13 ar  
     6     2    18 1   
     7     3     4 ar  
     8     3    15 1   
     9     4     5 ar  
    10     4     6 1   
    11     5    12 ar  
    12     5    19 1   
    13     6    20 1   
    14     6    21 1   
    15     6    22 1   
    16     7    14 1   
    17     7    16 2   
    18     8    11 1   
    19     8    17 1   
    20     8    23 1   
    21     8    24 1   
    22     9    10 1   
    23     9    28 1   
    24     9    29 1   
    25    10    17 1   
    26    10    30 1   
    27    10    31 1   
    28    11    32 1   
    29    11    33 1   
    30    12    13 ar  
    31    12    37 1   
    32    13    34 1   
    33    14    15 1   
    34    14    35 1   
    35    14    36 1   
    36    25    37 1   
    37    26    37 1   
    38    27    37 1   
@<TRIPOS>SUBSTRUCTURE
     1 S07         1 TEMP              0 ****  ****    0 ROOT
