@<TRIPOS>MOLECULE
S09
   52    55     1     0     0
SMALL
No Charge or Current Charge


@<TRIPOS>ATOM
      1 C18        -49.8780   -28.7270     6.3650 ca         1 S09      -0.012000
      2 C16        -49.9480   -28.7920     3.9220 ca         1 S09      -0.039000
      3 C17        -50.6020   -28.6460     5.1580 ca         1 S09      -0.166500
      4 C15        -48.5560   -29.0230     3.8570 ca         1 S09      -0.148600
      5 C14        -47.8900   -29.1720     2.5030 c          1 S09       0.606700
      6 C12        -45.8420   -29.6540     1.2470 c5         1 S09       0.168000
      7 C11        -45.3330   -28.3820     0.6080 ca         1 S09      -0.059300
      8 C10        -46.0540   -27.5300    -0.2460 ca         1 S09      -0.113000
      9 C20        -51.7730   -28.3650     8.0690 c          1 S09       0.668100
     10 C02        -44.4970   -31.3210     2.8160 c          1 S09       0.717000
     11 C03        -44.4520   -30.3310     1.6190 c5         1 S09      -0.199700
     12 C04        -43.4430   -29.1420     1.8780 c5         1 S09      -0.024100
     13 C05        -44.0220   -28.0970     0.9530 ca         1 S09      -0.155300
     14 C06        -43.3870   -26.9410     0.4640 ca         1 S09       0.123100
     15 C08        -44.0970   -26.0800    -0.3920 ca         1 S09      -0.152000
     16 C09        -45.4290   -26.3730    -0.7490 ca         1 S09      -0.104000
     17 C22        -52.9470   -28.1020    10.3430 ca         1 S09       0.003000
     18 C23        -54.2790   -27.8980     9.9170 ca         1 S09      -0.154000
     19 C24        -55.3050   -27.7010    10.8600 ca         1 S09      -0.083500
     20 C25        -55.0120   -27.7060    12.2320 ca         1 S09      -0.147000
     21 C26        -53.6920   -27.9080    12.6650 ca         1 S09      -0.083500
     22 C27        -52.6670   -28.1050    11.7230 ca         1 S09      -0.154000
     23 C29        -48.4930   -28.9550     6.3050 ca         1 S09      -0.166500
     24 C30        -47.8340   -29.1010     5.0720 ca         1 S09      -0.039000
     25 N13        -46.5380   -29.4380     2.5130 ns         1 S09      -0.482900
     26 N19        -50.4670   -28.5910     7.6530 ns         1 S09      -0.160000
     27 N21        -51.8560   -28.3080     9.4530 ns         1 S09      -0.168000
     28 O01        -44.7330   -30.9070     3.9440 o          1 S09      -0.725000
     29 O07        -42.1020   -26.6480     0.8100 oh         1 S09      -0.560100
     30 O28        -52.7280   -28.2340     7.3120 o          1 S09      -0.607100
     31 O31        -48.5230   -29.0640     1.4600 o          1 S09      -0.661100
     32 O32        -44.2450   -32.4970     2.6040 o          1 S09      -0.725000
     33 H161       -50.5340   -28.7240     3.0070 ha         1 S09       0.136500
     34 H171       -51.6720   -28.4710     5.1500 ha         1 S09       0.122000
     35 H121       -46.4170   -30.2740     0.5440 h1         1 S09       0.069700
     36 H101       -47.0830   -27.7600    -0.5140 ha         1 S09       0.133000
     37 H031       -44.1250   -30.8950     0.7380 hc         1 S09       0.053700
     38 H042       -42.4130   -29.4250     1.6330 hc         1 S09       0.051700
     39 H041       -43.4570   -28.7980     2.9190 hc         1 S09       0.051700
     40 H081       -43.6170   -25.1840    -0.7790 ha         1 S09       0.110000
     41 H091       -45.9750   -25.7050    -1.4110 ha         1 S09       0.099000
     42 H231       -54.5440   -27.8870     8.8650 ha         1 S09       0.129500
     43 H241       -56.3280   -27.5440    10.5240 ha         1 S09       0.110000
     44 H251       -55.8060   -27.5540    12.9600 ha         1 S09       0.110000
     45 H261       -53.4630   -27.9130    13.7290 ha         1 S09       0.110000
     46 H271       -51.6480   -28.2600    12.0720 ha         1 S09       0.129500
     47 H291       -47.9140   -29.0190     7.2240 ha         1 S09       0.122000
     48 H301       -46.7600   -29.2710     5.0840 ha         1 S09       0.136500
     49 H131       -46.0920   -29.6100     3.4080 hn         1 S09       0.376500
     50 H191       -49.8020   -28.6750     8.4100 hn         1 S09       0.143000
     51 H211       -50.9710   -28.4370     9.9250 hn         1 S09       0.145000
     52 H071       -41.7870   -27.3460     1.4220 ho         1 S09       0.463000
@<TRIPOS>BOND
     1     1     3 ar  
     2     1    23 ar  
     3     1    26 1   
     4     2     3 ar  
     5     2     4 ar  
     6     2    33 1   
     7     3    34 1   
     8     4     5 1   
     9     4    24 ar  
    10     5    25 1   
    11     5    31 2   
    12     6     7 1   
    13     6    11 1   
    14     6    25 1   
    15     6    35 1   
    16     7     8 ar  
    17     7    13 ar  
    18     8    16 ar  
    19     8    36 1   
    20     9    26 1   
    21     9    27 1   
    22     9    30 2   
    23    10    11 1   
    24    10    28 1   
    25    10    32 1   
    26    11    12 1   
    27    11    37 1   
    28    12    13 1   
    29    12    38 1   
    30    12    39 1   
    31    13    14 ar  
    32    14    15 ar  
    33    14    29 1   
    34    15    16 ar  
    35    15    40 1   
    36    16    41 1   
    37    17    18 ar  
    38    17    22 ar  
    39    17    27 1   
    40    18    19 ar  
    41    18    42 1   
    42    19    20 ar  
    43    19    43 1   
    44    20    21 ar  
    45    20    44 1   
    46    21    22 ar  
    47    21    45 1   
    48    22    46 1   
    49    23    24 ar  
    50    23    47 1   
    51    24    48 1   
    52    25    49 1   
    53    26    50 1   
    54    27    51 1   
    55    29    52 1   
@<TRIPOS>SUBSTRUCTURE
     1 S09         1 TEMP              0 ****  ****    0 ROOT
