@<TRIPOS>MOLECULE
S09
   52    55     1     0     0
SMALL
abcg2


@<TRIPOS>ATOM
      1 C18        -49.7230   -28.7270     6.4770 ca         1 S09      -0.012000
      2 C16        -49.8880   -29.1280     4.1070 ca         1 S09      -0.039000
      3 C17        -50.5020   -28.9790     5.3410 ca         1 S09      -0.166500
      4 C15        -48.5040   -29.0490     3.9590 ca         1 S09      -0.148600
      5 C14        -47.9140   -29.2040     2.5940 c          1 S09       0.606700
      6 C12        -45.8790   -29.6870     1.2890 c5         1 S09       0.168000
      7 C11        -45.4510   -28.3630     0.6810 ca         1 S09      -0.059300
      8 C10        -46.2170   -27.4520    -0.0350 ca         1 S09      -0.113000
      9 C20        -51.5510   -28.3870     8.1440 c          1 S09       0.668100
     10 C02        -44.5300   -31.4460     2.6740 c          1 S09       0.717000
     11 C03        -44.5180   -30.3990     1.5440 c5         1 S09      -0.199700
     12 C04        -43.5040   -29.2510     1.7560 c5         1 S09      -0.024100
     13 C05        -44.1110   -28.1150     0.9760 ca         1 S09      -0.155300
     14 C06        -43.5230   -26.9250     0.5600 ca         1 S09       0.123100
     15 C08        -44.2780   -26.0010    -0.1630 ca         1 S09      -0.152000
     16 C09        -45.6120   -26.2680    -0.4560 ca         1 S09      -0.104000
     17 C22        -52.8580   -28.0730    10.2530 ca         1 S09       0.003000
     18 C23        -54.0920   -27.7190     9.6960 ca         1 S09      -0.154000
     19 C24        -55.1890   -27.5170    10.5270 ca         1 S09      -0.083500
     20 C25        -55.0850   -27.6550    11.9070 ca         1 S09      -0.147000
     21 C26        -53.8550   -28.0020    12.4590 ca         1 S09      -0.083500
     22 C27        -52.7530   -28.2100    11.6440 ca         1 S09      -0.154000
     23 C29        -48.3310   -28.6410     6.3360 ca         1 S09      -0.166500
     24 C30        -47.7330   -28.8020     5.1000 ca         1 S09      -0.039000
     25 N13        -46.6010   -29.4840     2.5420 ns         1 S09      -0.482900
     26 N19        -50.2370   -28.5690     7.7650 ns         1 S09      -0.160000
     27 N21        -51.6880   -28.2820     9.5080 ns         1 S09      -0.168000
     28 O01        -44.7120   -31.0090     3.8480 o          1 S09      -0.725000
     29 O07        -42.2160   -26.6130     0.8250 oh         1 S09      -0.560100
     30 O28        -52.4840   -28.3270     7.3530 o          1 S09      -0.607100
     31 O31        -48.6090   -29.0740     1.5770 o          1 S09      -0.661100
     32 O32        -44.3680   -32.6460     2.3550 o          1 S09      -0.725000
     33 H161       -50.4950   -29.3180     3.2320 ha         1 S09       0.136500
     34 H171       -51.5720   -29.0540     5.4290 ha         1 S09       0.122000
     35 H121       -46.5120   -30.2650     0.6150 h1         1 S09       0.069700
     36 H101       -47.2550   -27.6550    -0.2540 ha         1 S09       0.133000
     37 H031       -44.2650   -30.9070     0.6130 hc         1 S09       0.053700
     38 H042       -42.5070   -29.5320     1.4100 hc         1 S09       0.051700
     39 H041       -43.4240   -29.0000     2.8180 hc         1 S09       0.051700
     40 H081       -43.8110   -25.0820    -0.4920 ha         1 S09       0.110000
     41 H091       -46.1830   -25.5420    -1.0230 ha         1 S09       0.099000
     42 H231       -54.1870   -27.6060     8.6300 ha         1 S09       0.129500
     43 H241       -56.1380   -27.2450    10.0820 ha         1 S09       0.110000
     44 H251       -55.9470   -27.4950    12.5420 ha         1 S09       0.110000
     45 H261       -53.7490   -28.1130    13.5310 ha         1 S09       0.110000
     46 H271       -51.7980   -28.4800    12.0790 ha         1 S09       0.129500
     47 H291       -47.7200   -28.4380     7.2070 ha         1 S09       0.122000
     48 H301       -46.6580   -28.7050     5.0310 ha         1 S09       0.136500
     49 H131       -46.0950   -29.7910     3.3710 hn         1 S09       0.376500
     50 H191       -49.5380   -28.5030     8.4900 hn         1 S09       0.143000
     51 H211       -50.8600   -28.4310    10.0650 hn         1 S09       0.145000
     52 H071       -41.7990   -27.3290     1.3230 ho         1 S09       0.463000
@<TRIPOS>BOND
     1     1     3 ar  
     2     1    23 ar  
     3     1    26 1   
     4     2     3 ar  
     5     2     4 ar  
     6     2    33 1   
     7     3    34 1   
     8     4     5 1   
     9     4    24 ar  
    10     5    25 1   
    11     5    31 2   
    12     6     7 1   
    13     6    11 1   
    14     6    25 1   
    15     6    35 1   
    16     7     8 ar  
    17     7    13 ar  
    18     8    16 ar  
    19     8    36 1   
    20     9    26 1   
    21     9    27 1   
    22     9    30 2   
    23    10    11 1   
    24    10    28 1   
    25    10    32 1   
    26    11    12 1   
    27    11    37 1   
    28    12    13 1   
    29    12    38 1   
    30    12    39 1   
    31    13    14 ar  
    32    14    15 ar  
    33    14    29 1   
    34    15    16 ar  
    35    15    40 1   
    36    16    41 1   
    37    17    18 ar  
    38    17    22 ar  
    39    17    27 1   
    40    18    19 ar  
    41    18    42 1   
    42    19    20 ar  
    43    19    43 1   
    44    20    21 ar  
    45    20    44 1   
    46    21    22 ar  
    47    21    45 1   
    48    22    46 1   
    49    23    24 ar  
    50    23    47 1   
    51    24    48 1   
    52    25    49 1   
    53    26    50 1   
    54    27    51 1   
    55    29    52 1   
@<TRIPOS>SUBSTRUCTURE
     1 S09         1 TEMP              0 ****  ****    0 ROOT
