@<TRIPOS>MOLECULE
S0A
   31    32     1     0     0
SMALL
No Charge or Current Charge


@<TRIPOS>ATOM
      1 C15         -5.0430    -0.0470     0.1080 ca         1 S0A      -0.139000
      2 C14         -4.2730     1.1190    -0.0240 ca         1 S0A      -0.084500
      3 C13         -4.4090    -1.2930     0.2330 ca         1 S0A      -0.084500
      4 C11         -2.8690     1.0420    -0.0310 ca         1 S0A      -0.150000
      5 C12         -3.0050    -1.3700     0.2260 ca         1 S0A      -0.150000
      6 C9          -2.2210    -0.2080     0.0950 ca         1 S0A      -0.003000
      7 C1           0.2330     0.5440     0.0040 c          1 S0A       0.661100
      8 C4           5.2790    -0.1380     0.4160 cx         1 S0A      -0.128400
      9 C5           4.5010    -1.3950     0.0930 cx         1 S0A      -0.128400
     10 C2           3.7940    -0.2030     0.7010 cx         1 S0A      -0.141700
     11 C10          3.0680     0.9380    -1.5360 c3         1 S0A      -0.115100
     12 C7           2.7450     0.6230    -0.0570 c3         1 S0A       0.157700
     13 N6          -0.8080    -0.3660     0.0950 ns         1 S0A      -0.168000
     14 N3           1.4630    -0.0690     0.0450 ns         1 S0A      -0.523900
     15 O8           0.1090     1.7570    -0.0960 o          1 S0A      -0.626100
     16 H1          -6.1290     0.0150     0.1130 ha         1 S0A       0.114000
     17 H2          -4.7640     2.0850    -0.1220 ha         1 S0A       0.111500
     18 H3          -5.0030    -2.1980     0.3350 ha         1 S0A       0.111500
     19 H4          -2.3060     1.9630    -0.1360 ha         1 S0A       0.124500
     20 H5          -2.5260    -2.3420     0.3230 ha         1 S0A       0.124500
     21 H6           5.9570    -0.1700     1.2660 hc         1 S0A       0.072200
     22 H7           5.6360     0.4590    -0.4180 hc         1 S0A       0.072200
     23 H8           4.3300    -1.6280    -0.9550 hc         1 S0A       0.072200
     24 H9           4.6590    -2.2650     0.7260 hc         1 S0A       0.072200
     25 H10          3.5240    -0.2990     1.7510 hc         1 S0A       0.084700
     26 H11          3.9940     1.5170    -1.6230 hc         1 S0A       0.043700
     27 H12          3.1680     0.0220    -2.1290 hc         1 S0A       0.043700
     28 H13          2.2670     1.5390    -1.9820 hc         1 S0A       0.043700
     29 H14          2.6530     1.5840     0.4690 h1         1 S0A       0.083700
     30 H15         -0.5100    -1.3280     0.1770 hn         1 S0A       0.142000
     31 H16          1.4740    -1.0770     0.1330 hn         1 S0A       0.306500
@<TRIPOS>BOND
     1     1     2 ar  
     2     1     3 ar  
     3     1    16 1   
     4     2     4 ar  
     5     2    17 1   
     6     3     5 ar  
     7     3    18 1   
     8     4     6 ar  
     9     4    19 1   
    10     5     6 ar  
    11     5    20 1   
    12     6    13 1   
    13     7    13 1   
    14     7    14 1   
    15     7    15 2   
    16     8     9 1   
    17     8    10 1   
    18     8    21 1   
    19     8    22 1   
    20     9    10 1   
    21     9    23 1   
    22     9    24 1   
    23    10    12 1   
    24    10    25 1   
    25    11    12 1   
    26    11    26 1   
    27    11    27 1   
    28    11    28 1   
    29    12    14 1   
    30    12    29 1   
    31    13    30 1   
    32    14    31 1   
@<TRIPOS>SUBSTRUCTURE
     1 S0A         1 TEMP              0 ****  ****    0 ROOT
