@<TRIPOS>MOLECULE
S0A
   31    32     1     0     0
SMALL
abcg2


@<TRIPOS>ATOM
      1 C15         -4.9530     0.0590     0.0820 ca         1 S0A      -0.139000
      2 C14         -4.1230     1.1290     0.3860 ca         1 S0A      -0.084500
      3 C13         -4.3800    -1.1760    -0.1920 ca         1 S0A      -0.084500
      4 C11         -2.7430     0.9860     0.4180 ca         1 S0A      -0.150000
      5 C12         -3.0040    -1.3300    -0.1740 ca         1 S0A      -0.150000
      6 C9          -2.1650    -0.2530     0.1280 ca         1 S0A      -0.003000
      7 C1           0.2260     0.4060     0.0060 c          1 S0A       0.661100
      8 C4           5.2080     0.0360     0.3450 cx         1 S0A      -0.128400
      9 C5           4.4530    -1.2590     0.3780 cx         1 S0A      -0.128400
     10 C2           3.7620     0.0290     0.7220 cx         1 S0A      -0.141700
     11 C10          3.0030     0.6540    -1.6490 c3         1 S0A      -0.115100
     12 C7           2.6770     0.6110    -0.1600 c3         1 S0A       0.157700
     13 N6          -0.7940    -0.5030     0.1670 ns         1 S0A      -0.168000
     14 N3           1.4600    -0.1420     0.0980 ns         1 S0A      -0.523900
     15 O8           0.0360     1.5990    -0.1830 o          1 S0A      -0.626100
     16 H1          -6.0280     0.1840     0.0640 ha         1 S0A       0.114000
     17 H2          -4.5510     2.0960     0.6140 ha         1 S0A       0.111500
     18 H3          -5.0050    -2.0280    -0.4290 ha         1 S0A       0.111500
     19 H4          -2.1290     1.8350     0.6740 ha         1 S0A       0.124500
     20 H5          -2.5710    -2.2980    -0.4010 ha         1 S0A       0.124500
     21 H6           5.9320     0.2310     1.1260 hc         1 S0A       0.072200
     22 H7           5.4930     0.4270    -0.6230 hc         1 S0A       0.072200
     23 H8           4.2260    -1.7310    -0.5700 hc         1 S0A       0.072200
     24 H9           4.6560    -1.9560     1.1800 hc         1 S0A       0.072200
     25 H10          3.5590     0.1720     1.7780 hc         1 S0A       0.084700
     26 H11          3.8490     1.3110    -1.8520 hc         1 S0A       0.043700
     27 H12          3.2340    -0.3340    -2.0500 hc         1 S0A       0.043700
     28 H13          2.1490     1.0440    -2.2030 hc         1 S0A       0.043700
     29 H14          2.4970     1.6350     0.1720 h1         1 S0A       0.083700
     30 H15         -0.5420    -1.4800     0.1740 hn         1 S0A       0.142000
     31 H16          1.5590    -1.1420     0.1750 hn         1 S0A       0.306500
@<TRIPOS>BOND
     1     1     2 ar  
     2     1     3 ar  
     3     1    16 1   
     4     2     4 ar  
     5     2    17 1   
     6     3     5 ar  
     7     3    18 1   
     8     4     6 ar  
     9     4    19 1   
    10     5     6 ar  
    11     5    20 1   
    12     6    13 1   
    13     7    13 1   
    14     7    14 1   
    15     7    15 2   
    16     8     9 1   
    17     8    10 1   
    18     8    21 1   
    19     8    22 1   
    20     9    10 1   
    21     9    23 1   
    22     9    24 1   
    23    10    12 1   
    24    10    25 1   
    25    11    12 1   
    26    11    26 1   
    27    11    27 1   
    28    11    28 1   
    29    12    14 1   
    30    12    29 1   
    31    13    30 1   
    32    14    31 1   
@<TRIPOS>SUBSTRUCTURE
     1 S0A         1 TEMP              0 ****  ****    0 ROOT
