@<TRIPOS>MOLECULE
S0B
   31    32     1     0     0
SMALL
No Charge or Current Charge


@<TRIPOS>ATOM
      1 C15          5.4790    -0.7580     0.1580 ca         1 S0B      -0.108000
      2 C13          4.7220    -0.7090     1.3410 ca         1 S0B      -0.108500
      3 C14          4.9650    -0.2030    -1.0260 ca         1 S0B      -0.108500
      4 C11          3.4530    -0.1060     1.3400 ca         1 S0B      -0.103500
      5 C12          3.6950     0.4010    -1.0270 ca         1 S0B      -0.103500
      6 C10          2.9330     0.4540     0.1570 ca         1 S0B      -0.082300
      7 C1          -2.0670     0.1100    -0.4160 c2         1 S0B       0.701100
      8 C7          -3.5290    -1.5150    -0.9580 c5         1 S0B       0.122800
      9 C5          -4.4790    -0.4670    -0.2980 c5         1 S0B       0.067300
     10 C8          -4.7900    -0.7450     1.1900 c3         1 S0B      -0.085100
     11 C9           1.5550     1.1020     0.1540 c3         1 S0B      -0.047100
     12 C6           0.4420     0.0870    -0.1710 c3         1 S0B       0.224800
     13 N4          -2.1110    -1.1500    -0.6330 n2         1 S0B      -0.672900
     14 N3          -0.8800     0.7340    -0.1650 nu         1 S0B      -0.894400
     15 S2          -3.5250     1.0970    -0.4390 ss         1 S0B      -0.432200
     16 H1           6.4610    -1.2260     0.1590 ha         1 S0B       0.113000
     17 H2           5.1190    -1.1400     2.2580 ha         1 S0B       0.113000
     18 H3           5.5490    -0.2410    -1.9430 ha         1 S0B       0.113000
     19 H4           2.8730    -0.0740     2.2600 ha         1 S0B       0.111500
     20 H5           3.3040     0.8260    -1.9490 ha         1 S0B       0.111500
     21 H7          -3.7600    -2.5260    -0.5940 h1         1 S0B       0.065200
     22 H8          -3.6620    -1.5290    -2.0490 h1         1 S0B       0.065200
     23 H9          -5.4280    -0.3870    -0.8450 h1         1 S0B       0.086700
     24 H10         -3.8740    -0.8160     1.7880 hc         1 S0B       0.046700
     25 H11         -5.4080     0.0540     1.6160 hc         1 S0B       0.046700
     26 H12         -5.3390    -1.6870     1.3050 hc         1 S0B       0.046700
     27 H13          1.3520     1.5570     1.1320 hc         1 S0B       0.051200
     28 H14          1.5250     1.9180    -0.5790 hc         1 S0B       0.051200
     29 H15          0.6390    -0.3570    -1.1570 h1         1 S0B       0.055700
     30 H16          0.4680    -0.7220     0.5720 h1         1 S0B       0.055700
     31 H19         -0.9350     1.7410    -0.0470 hn         1 S0B       0.497000
@<TRIPOS>BOND
     1     1     2 ar  
     2     1     3 ar  
     3     1    16 1   
     4     2     4 ar  
     5     2    17 1   
     6     3     5 ar  
     7     3    18 1   
     8     4     6 ar  
     9     4    19 1   
    10     5     6 ar  
    11     5    20 1   
    12     6    11 1   
    13     7    13 2   
    14     7    14 1   
    15     7    15 1   
    16     8     9 1   
    17     8    13 1   
    18     8    21 1   
    19     8    22 1   
    20     9    10 1   
    21     9    15 1   
    22     9    23 1   
    23    10    24 1   
    24    10    25 1   
    25    10    26 1   
    26    11    12 1   
    27    11    27 1   
    28    11    28 1   
    29    12    14 1   
    30    12    29 1   
    31    12    30 1   
    32    14    31 1   
@<TRIPOS>SUBSTRUCTURE
     1 S0B         1 TEMP              0 ****  ****    0 ROOT
