@<TRIPOS>MOLECULE
S0B
   31    32     1     0     0
SMALL
bcc


@<TRIPOS>ATOM
      1 C15          5.3950    -0.8030     0.0490 ca         1 S0B      -0.126000
      2 C13          4.6760    -0.8090     1.2380 ca         1 S0B      -0.126500
      3 C14          4.8730    -0.1570    -1.0640 ca         1 S0B      -0.126500
      4 C11          3.4430    -0.1730     1.3090 ca         1 S0B      -0.121500
      5 C12          3.6410     0.4780    -0.9870 ca         1 S0B      -0.121500
      6 C10          2.9110     0.4780     0.1990 ca         1 S0B      -0.082300
      7 C1          -1.9620     0.1050    -0.3420 c2         1 S0B       0.701100
      8 C7          -3.3830    -1.5880    -0.7610 c5         1 S0B       0.122800
      9 C5          -4.4070    -0.5150    -0.3460 c5         1 S0B       0.019400
     10 C8          -4.8910    -0.6720     1.0840 c3         1 S0B      -0.085100
     11 C9           1.5570     1.1290     0.2640 c3         1 S0B      -0.047100
     12 C6           0.4640     0.1520    -0.1570 c3         1 S0B       0.224800
     13 N4          -2.0460    -1.1620    -0.4210 n2         1 S0B      -0.672900
     14 N3          -0.8310     0.7940    -0.0990 nu         1 S0B      -0.839200
     15 S2          -3.4680     1.0370    -0.5590 ss         1 S0B      -0.384300
     16 H1           6.3560    -1.2980    -0.0090 ha         1 S0B       0.131000
     17 H2           5.0750    -1.3080     2.1110 ha         1 S0B       0.131000
     18 H3           5.4280    -0.1470    -1.9940 ha         1 S0B       0.131000
     19 H4           2.8900    -0.1780     2.2420 ha         1 S0B       0.129500
     20 H5           3.2410     0.9820    -1.8600 ha         1 S0B       0.129500
     21 H7          -3.6270    -2.5330    -0.2680 h1         1 S0B       0.065200
     22 H8          -3.4510    -1.7710    -1.8390 h1         1 S0B       0.065200
     23 H9          -5.2500    -0.4980    -1.0360 h1         1 S0B       0.086700
     24 H10         -4.0560    -0.6950     1.7850 hc         1 S0B       0.046700
     25 H11         -5.5570     0.1410     1.3720 hc         1 S0B       0.046700
     26 H12         -5.4440    -1.6090     1.1860 hc         1 S0B       0.046700
     27 H13          1.3540     1.4830     1.2770 hc         1 S0B       0.051200
     28 H14          1.5350     2.0020    -0.3940 hc         1 S0B       0.051200
     29 H15          0.6710    -0.2250    -1.1650 h1         1 S0B       0.055700
     30 H16          0.4640    -0.7120     0.5110 h1         1 S0B       0.055700
     31 H19         -0.8570     1.7960    -0.1920 hn         1 S0B       0.441800
@<TRIPOS>BOND
     1     1     2 ar  
     2     1     3 ar  
     3     1    16 1   
     4     2     4 ar  
     5     2    17 1   
     6     3     5 ar  
     7     3    18 1   
     8     4     6 ar  
     9     4    19 1   
    10     5     6 ar  
    11     5    20 1   
    12     6    11 1   
    13     7    13 2   
    14     7    14 1   
    15     7    15 1   
    16     8     9 1   
    17     8    13 1   
    18     8    21 1   
    19     8    22 1   
    20     9    10 1   
    21     9    15 1   
    22     9    23 1   
    23    10    24 1   
    24    10    25 1   
    25    10    26 1   
    26    11    12 1   
    27    11    27 1   
    28    11    28 1   
    29    12    14 1   
    30    12    29 1   
    31    12    30 1   
    32    14    31 1   
@<TRIPOS>SUBSTRUCTURE
     1 S0B         1 TEMP              0 ****  ****    0 ROOT
