@<TRIPOS>MOLECULE
S0C
   28    29     1     0     0
SMALL
abcg2


@<TRIPOS>ATOM
      1 C7           4.1630     0.1550     0.8990 cc         1 S0C       0.301900
      2 C6           4.1940    -0.7640    -0.0930 cd         1 S0C      -0.314000
      3 C4           2.1080     0.4020     0.1970 cd         1 S0C       0.532300
      4 C1          -0.1270     0.5360    -0.7320 c          1 S0C       0.605100
      5 C14         -4.0240    -1.1260     0.9240 c5         1 S0C      -0.077900
      6 C13         -4.8990    -0.1990     0.0510 c5         1 S0C      -0.077900
      7 C11         -2.5700    -0.6630     0.7070 c5         1 S0C      -0.078900
      8 C12         -3.9730     0.9400    -0.3760 c5         1 S0C      -0.078900
      9 C10         -2.6150     0.2580    -0.5160 c5         1 S0C      -0.063700
     10 C9          -1.4500     1.2380    -0.5950 c3         1 S0C      -0.141400
     11 N8           2.9770     0.8150     1.0620 nc         1 S0C      -0.709000
     12 N3           0.8320     0.9120     0.1580 ns         1 S0C      -0.471400
     13 O2           0.1010    -0.3170    -1.5710 o          1 S0C      -0.574100
     14 S5           2.6650    -0.8260    -0.8870 ss         1 S0C       0.056600
     15 H1           4.9930     0.3910     1.5500 h4         1 S0C       0.039100
     16 H2           5.0130    -1.3960    -0.3970 h4         1 S0C       0.159000
     17 H3          -4.2990    -1.0580     1.9770 hc         1 S0C       0.043700
     18 H4          -4.1580    -2.1700     0.6370 hc         1 S0C       0.043700
     19 H5          -5.2470    -0.7350    -0.8340 hc         1 S0C       0.043700
     20 H6          -5.7860     0.1570     0.5750 hc         1 S0C       0.043700
     21 H7          -2.2210    -0.0920     1.5730 hc         1 S0C       0.044200
     22 H8          -1.8770    -1.4970     0.5800 hc         1 S0C       0.044200
     23 H9          -4.2990     1.4350    -1.2930 hc         1 S0C       0.044200
     24 H10         -3.9190     1.7050     0.4070 hc         1 S0C       0.044200
     25 H11         -2.6250    -0.3530    -1.4260 hc         1 S0C       0.072700
     26 H12         -1.4580     1.8870     0.2830 hc         1 S0C       0.065200
     27 H13         -1.5660     1.8880    -1.4690 hc         1 S0C       0.065200
     28 H14          0.6290     1.6220     0.8470 hn         1 S0C       0.340500
@<TRIPOS>BOND
     1     1     2 2   
     2     1    11 1   
     3     1    15 1   
     4     2    14 1   
     5     2    16 1   
     6     3    11 2   
     7     3    12 1   
     8     3    14 1   
     9     4    10 1   
    10     4    12 1   
    11     4    13 2   
    12     5     6 1   
    13     5     7 1   
    14     5    17 1   
    15     5    18 1   
    16     6     8 1   
    17     6    19 1   
    18     6    20 1   
    19     7     9 1   
    20     7    21 1   
    21     7    22 1   
    22     8     9 1   
    23     8    23 1   
    24     8    24 1   
    25     9    10 1   
    26     9    25 1   
    27    10    26 1   
    28    10    27 1   
    29    12    28 1   
@<TRIPOS>SUBSTRUCTURE
     1 S0C         1 TEMP              0 ****  ****    0 ROOT
