@<TRIPOS>MOLECULE
S0C
   28    29     1     0     0
SMALL
No Charge or Current Charge


@<TRIPOS>ATOM
      1 C7           3.9660    -0.0110     1.1360 cc         1 S0C       0.301900
      2 C6           4.2280    -0.7690     0.0240 cd         1 S0C      -0.314000
      3 C4           2.0320     0.2740     0.1010 cd         1 S0C       0.532300
      4 C1          -0.1330     0.5900    -1.0530 c          1 S0C       0.605100
      5 C14         -3.8390    -1.1690     0.9370 c5         1 S0C      -0.077900
      6 C13         -4.8500    -0.2220     0.2110 c5         1 S0C      -0.077900
      7 C11         -2.4620    -0.4570     0.8050 c5         1 S0C      -0.078900
      8 C12         -3.9910     0.9810    -0.2710 c5         1 S0C      -0.078900
      9 C10         -2.6210     0.3090    -0.5340 c5         1 S0C      -0.063700
     10 C9          -1.4760     1.3040    -0.8570 c3         1 S0C      -0.141400
     11 N8           2.7270     0.5790     1.1830 nc         1 S0C      -0.709000
     12 N3           0.7650     0.7690    -0.0310 ns         1 S0C      -0.471400
     13 O2           0.1100    -0.0600    -2.0570 o          1 S0C      -0.574100
     14 S5           2.8550    -0.7720    -1.0660 ss         1 S0C       0.056600
     15 H1           4.6440     0.1570     1.9630 h4         1 S0C       0.039100
     16 H2           5.1310    -1.3150    -0.2130 h4         1 S0C       0.159000
     17 H3          -4.1080    -1.3340     1.9860 hc         1 S0C       0.043700
     18 H4          -3.8200    -2.1540     0.4560 hc         1 S0C       0.043700
     19 H5          -5.3170    -0.7360    -0.6380 hc         1 S0C       0.043700
     20 H6          -5.6630     0.1000     0.8720 hc         1 S0C       0.043700
     21 H7          -2.2840     0.2260     1.6440 hc         1 S0C       0.044200
     22 H8          -1.6310    -1.1720     0.7880 hc         1 S0C       0.044200
     23 H9          -4.4070     1.4520    -1.1690 hc         1 S0C       0.044200
     24 H10         -3.9220     1.7570     0.5010 hc         1 S0C       0.044200
     25 H11         -2.6880    -0.3900    -1.3790 hc         1 S0C       0.072700
     26 H12         -1.3960     2.0350    -0.0430 hc         1 S0C       0.065200
     27 H13         -1.7210     1.8300    -1.7870 hc         1 S0C       0.065200
     28 H14          0.4310     1.3420     0.7290 hn         1 S0C       0.340500
@<TRIPOS>BOND
     1     1     2 2   
     2     1    11 1   
     3     1    15 1   
     4     2    14 1   
     5     2    16 1   
     6     3    11 2   
     7     3    12 1   
     8     3    14 1   
     9     4    10 1   
    10     4    12 1   
    11     4    13 2   
    12     5     6 1   
    13     5     7 1   
    14     5    17 1   
    15     5    18 1   
    16     6     8 1   
    17     6    19 1   
    18     6    20 1   
    19     7     9 1   
    20     7    21 1   
    21     7    22 1   
    22     8     9 1   
    23     8    23 1   
    24     8    24 1   
    25     9    10 1   
    26     9    25 1   
    27    10    26 1   
    28    10    27 1   
    29    12    28 1   
@<TRIPOS>SUBSTRUCTURE
     1 S0C         1 TEMP              0 ****  ****    0 ROOT
