@<TRIPOS>MOLECULE
S0D
   25    27     1     0     0
SMALL
No Charge or Current Charge


@<TRIPOS>ATOM
      1 C15         -4.3960    -0.5420    -0.0350 ca         1 S0D      -0.097000
      2 C14         -4.3310     0.8720     0.0090 ca         1 S0D      -0.134000
      3 C12         -3.2100    -1.3070    -0.0600 ca         1 S0D      -0.115000
      4 C13         -3.0810     1.5320     0.0290 ca         1 S0D      -0.053000
      5 C8           2.2710    -1.3020    -0.0640 cc         1 S0D       0.255900
      6 C6           2.4390     0.9140     0.0050 cd         1 S0D      -0.106000
      7 C2           1.5400    -0.1100    -0.0260 cc         1 S0D      -0.254900
      8 C9          -1.9950    -0.6130    -0.0390 ca         1 S0D      -0.081200
      9 C10         -1.9160     0.7500     0.0030 ca         1 S0D       0.076400
     10 C1           0.1170     0.0340    -0.0200 cc         1 S0D       0.522400
     11 N5           3.5760    -1.1150    -0.0590 nd         1 S0D      -0.521800
     12 N3          -0.7170    -1.0790    -0.0550 na         1 S0D      -0.312600
     13 N4          -0.5920     1.1810     0.0160 nd         1 S0D      -0.590100
     14 N7           3.6830     0.2730    -0.0160 na         1 S0D       0.133800
     15 H1          -5.3630    -1.0400    -0.0500 ha         1 S0D       0.111000
     16 H2          -5.2490     1.4550     0.0280 ha         1 S0D       0.112000
     17 H3          -3.2420    -2.3940    -0.0940 ha         1 S0D       0.115000
     18 H4          -3.0210     2.6170     0.0620 ha         1 S0D       0.126000
     19 H5           1.8900    -2.3140    -0.0950 h4         1 S0D       0.034100
     20 H6           2.3120     1.9910     0.0390 h4         1 S0D       0.173000
     21 H7           5.5560     0.6550    -0.9020 h1         1 S0D       0.059700
     22 H8           4.8750     2.0140     0.0410 h1         1 S0D       0.059700
     23 H9           5.5590     0.5940     0.8870 h1         1 S0D       0.059700
     24 H10         -0.4170    -2.0420    -0.0850 hn         1 S0D       0.356000
     25 C11          5.0000     0.9250     0.0040 c3         1 S0D       0.070900
@<TRIPOS>BOND
     1     1     2 ar  
     2     1     3 ar  
     3     1    15 1   
     4     2     4 ar  
     5     2    16 1   
     6     3     8 ar  
     7     3    17 1   
     8     4     9 ar  
     9     4    18 1   
    10     5     7 1   
    11     5    11 2   
    12     5    19 1   
    13     6     7 2   
    14     6    14 1   
    15     6    20 1   
    16     7    10 1   
    17     8     9 ar  
    18     8    12 1   
    19     9    13 1   
    20    10    12 1   
    21    10    13 2   
    22    11    14 1   
    23    12    24 1   
    24    14    25 1   
    25    21    25 1   
    26    22    25 1   
    27    23    25 1   
@<TRIPOS>SUBSTRUCTURE
     1 S0D         1 TEMP              0 ****  ****    0 ROOT
