@<TRIPOS>MOLECULE
S0D
   25    27     1     0     0
SMALL
bcc


@<TRIPOS>ATOM
      1 C15         -4.3760    -0.4840    -0.0620 ca         1 S0D      -0.115000
      2 C14         -4.2630     0.9120     0.0010 ca         1 S0D      -0.152000
      3 C12         -3.2570    -1.3000    -0.0850 ca         1 S0D      -0.133000
      4 C13         -3.0290     1.5360     0.0410 ca         1 S0D      -0.071000
      5 C8           2.3330    -1.3380    -0.0030 cc         1 S0D       0.321200
      6 C6           2.4430     0.8570     0.0050 cd         1 S0D      -0.073300
      7 C2           1.5300    -0.1810     0.0020 cc         1 S0D      -0.320200
      8 C9          -2.0220    -0.6650    -0.0430 ca         1 S0D      -0.081200
      9 C10         -1.8880     0.7330     0.0180 ca         1 S0D       0.076400
     10 C1           0.0930    -0.0550     0.0010 cc         1 S0D       0.522400
     11 N5           3.6130    -1.0300    -0.0030 nd         1 S0D      -0.521800
     12 N3          -0.7360    -1.1340    -0.0520 na         1 S0D      -0.262300
     13 N4          -0.5600     1.0790     0.0450 nd         1 S0D      -0.590100
     14 N7           3.6590     0.3010     0.0030 na         1 S0D       0.112400
     15 H1          -5.3600    -0.9340    -0.0940 ha         1 S0D       0.129000
     16 H2          -5.1630     1.5130     0.0190 ha         1 S0D       0.130000
     17 H3          -3.3450    -2.3770    -0.1330 ha         1 S0D       0.133000
     18 H4          -2.9460     2.6150     0.0870 ha         1 S0D       0.144000
     19 H5           2.0280    -2.3740    -0.0020 h4         1 S0D       0.034100
     20 H6           2.2970     1.9250     0.0100 h4         1 S0D       0.191000
     21 H7           5.4340     0.8020    -0.9780 h1         1 S0D       0.059700
     22 H8           4.7670     2.0460     0.0910 h1         1 S0D       0.059700
     23 H9           5.5630     0.6250     0.7830 h1         1 S0D       0.059700
     24 H10         -0.4600    -2.1020    -0.1000 hn         1 S0D       0.305700
     25 C11          4.9330     0.9800    -0.0290 c3         1 S0D       0.041600
@<TRIPOS>BOND
     1     1     2 ar  
     2     1     3 ar  
     3     1    15 1   
     4     2     4 ar  
     5     2    16 1   
     6     3     8 ar  
     7     3    17 1   
     8     4     9 ar  
     9     4    18 1   
    10     5     7 1   
    11     5    11 2   
    12     5    19 1   
    13     6     7 2   
    14     6    14 1   
    15     6    20 1   
    16     7    10 1   
    17     8     9 ar  
    18     8    12 1   
    19     9    13 1   
    20    10    12 1   
    21    10    13 2   
    22    11    14 1   
    23    12    24 1   
    24    14    25 1   
    25    21    25 1   
    26    22    25 1   
    27    23    25 1   
@<TRIPOS>SUBSTRUCTURE
     1 S0D         1 TEMP              0 ****  ****    0 ROOT
