@<TRIPOS>MOLECULE
S0E
   19    20     1     0     0
SMALL
abcg2


@<TRIPOS>ATOM
      1 C10          1.0490     1.5640    -0.0510 ca         1 S0E      -0.051000
      2 C9          -0.2730     1.9670    -0.0730 ca         1 S0E      -0.091000
      3 C8           0.3960    -0.7670     0.0110 ca         1 S0E      -0.002000
      4 C7           1.3860     0.2080    -0.0070 ca         1 S0E      -0.216300
      5 C6          -1.2840     1.0080    -0.0540 ca         1 S0E       0.180400
      6 C5          -0.9210    -0.3510    -0.0110 ca         1 S0E      -0.212000
      7 C1          -3.3090     0.1620    -0.0360 cc         1 S0E       0.670100
      8 C4           2.8270    -0.1840    -0.0350 c3         1 S0E       0.359300
      9 N2          -2.6260     1.2660    -0.0680 nd         1 S0E      -0.647100
     10 N11         -4.6380     0.0920    -0.0540 nv         1 S0E      -1.033200
     11 F12          3.3430    -0.1120    -1.2740 f          1 S0E      -0.115000
     12 F13          3.5830     0.6130     0.7330 f          1 S0E      -0.115000
     13 F14          3.0260    -1.4380     0.3880 f          1 S0E      -0.115000
     14 S3          -2.3610    -1.3250     0.0110 ss         1 S0E      -0.028200
     15 H1           1.8220     2.3210    -0.0670 ha         1 S0E       0.130000
     16 H2          -0.5260     3.0180    -0.1040 ha         1 S0E       0.137000
     17 H3           0.6360    -1.8210     0.0420 ha         1 S0E       0.137000
     18 H4          -5.1730     0.9440    -0.0120 hn         1 S0E       0.506000
     19 H5          -5.1310    -0.7740     0.0720 hn         1 S0E       0.506000
@<TRIPOS>BOND
     1     1     2 ar  
     2     1     4 ar  
     3     1    15 1   
     4     2     5 ar  
     5     2    16 1   
     6     3     4 ar  
     7     3     6 ar  
     8     3    17 1   
     9     4     8 1   
    10     5     6 ar  
    11     5     9 1   
    12     6    14 1   
    13     7     9 2   
    14     7    10 1   
    15     7    14 1   
    16     8    11 1   
    17     8    12 1   
    18     8    13 1   
    19    10    18 1   
    20    10    19 1   
@<TRIPOS>SUBSTRUCTURE
     1 S0E         1 TEMP              0 ****  ****    0 ROOT
