@<TRIPOS>MOLECULE
S0E
   19    20     1     0     0
SMALL
No Charge or Current Charge


@<TRIPOS>ATOM
      1 C10          1.0320     1.5890    -0.0300 ca         1 S0E      -0.051000
      2 C9          -0.3250     1.9700    -0.0530 ca         1 S0E      -0.091000
      3 C8           0.3810    -0.7630    -0.0500 ca         1 S0E      -0.002000
      4 C7           1.3970     0.2200    -0.0220 ca         1 S0E      -0.216300
      5 C6          -1.3200     0.9830    -0.0730 ca         1 S0E       0.180400
      6 C5          -0.9600    -0.3510    -0.0720 ca         1 S0E      -0.212000
      7 C1          -3.3010     0.0930    -0.1160 cc         1 S0E       0.670100
      8 C4           2.8730    -0.1920    -0.0090 c3         1 S0E       0.359300
      9 N2          -2.6830     1.2610    -0.0960 nd         1 S0E      -0.647100
     10 N11         -4.6410     0.1190    -0.1330 nv         1 S0E      -1.033200
     11 F12          3.3620    -0.3030    -1.2640 f          1 S0E      -0.115000
     12 F13          3.6510     0.7040     0.6410 f          1 S0E      -0.115000
     13 F14          3.0700    -1.3850     0.5990 f          1 S0E      -0.115000
     14 S3          -2.3580    -1.4140    -0.1050 ss         1 S0E      -0.028200
     15 H1           1.7970     2.3640    -0.0230 ha         1 S0E       0.130000
     16 H2          -0.6000     3.0210    -0.0570 ha         1 S0E       0.137000
     17 H3           0.6240    -1.8240    -0.0580 ha         1 S0E       0.137000
     18 H4          -5.0490     1.0090     0.1280 hn         1 S0E       0.506000
     19 H5          -5.1240    -0.7070     0.2020 hn         1 S0E       0.506000
@<TRIPOS>BOND
     1     1     2 ar  
     2     1     4 ar  
     3     1    15 1   
     4     2     5 ar  
     5     2    16 1   
     6     3     4 ar  
     7     3     6 ar  
     8     3    17 1   
     9     4     8 1   
    10     5     6 ar  
    11     5     9 1   
    12     6    14 1   
    13     7     9 2   
    14     7    10 1   
    15     7    14 1   
    16     8    11 1   
    17     8    12 1   
    18     8    13 1   
    19    10    18 1   
    20    10    19 1   
@<TRIPOS>SUBSTRUCTURE
     1 S0E         1 TEMP              0 ****  ****    0 ROOT
