@<TRIPOS>MOLECULE
S0F
   23    24     1     0     0
SMALL
abcg2


@<TRIPOS>ATOM
      1 C13          0.5460     0.8340    -1.6200 ca         1 S0F      -0.102500
      2 C14          0.2770     0.9270     0.7540 ca         1 S0F      -0.102500
      3 C11          1.8130     0.2830    -1.4670 ca         1 S0F      -0.083500
      4 C12          1.5380     0.3810     0.9300 ca         1 S0F      -0.083500
      5 C5          -3.5160     1.2520     0.9580 cc         1 S0F       0.317900
      6 C8          -0.2350     1.1640    -0.5200 ca         1 S0F      -0.071300
      7 C9           2.2970     0.0620    -0.1890 ca         1 S0F      -0.017900
      8 C4          -2.6840     0.9440    -0.0620 cd         1 S0F      -0.240300
      9 C1          -4.2700    -0.7830     0.6410 cd         1 S0F       0.695300
     10 C7          -1.6100     1.7620    -0.6930 c3         1 S0F       0.051200
     11 N2          -4.4060     0.2900     1.3560 nc         1 S0F      -0.724000
     12 N6          -5.0470    -1.8870     0.7530 nv         1 S0F      -1.036900
     13 S3          -3.0260    -0.6850    -0.5790 ss         1 S0F      -0.113400
     14 BR1          4.0170    -0.6880     0.0390 br         1 S0F      -0.101100
     15 H1           0.1680     1.0070    -2.6210 ha         1 S0F       0.118500
     16 H2          -0.3160     1.1680     1.6280 ha         1 S0F       0.118500
     17 H3           2.4000     0.0350    -2.3410 ha         1 S0F       0.129500
     18 H4           1.9160     0.2090     1.9280 ha         1 S0F       0.129500
     19 H6          -1.6410     2.7560    -0.2380 hc         1 S0F       0.062200
     20 H7          -1.8110     1.9060    -1.7580 hc         1 S0F       0.062200
     21 H8          -5.5570    -1.9710     1.6190 hn         1 S0F       0.477000
     22 H9          -4.6940    -2.7610     0.4020 hn         1 S0F       0.477000
     23 H5          -3.5080     2.2080     1.4670 h4         1 S0F       0.037100
@<TRIPOS>BOND
     1     1     3 ar  
     2     1     6 ar  
     3     1    15 1   
     4     2     4 ar  
     5     2     6 ar  
     6     2    16 1   
     7     3     7 ar  
     8     3    17 1   
     9     4     7 ar  
    10     4    18 1   
    11     5     8 2   
    12     5    11 1   
    13     5    23 1   
    14     6    10 1   
    15     7    14 1   
    16     8    10 1   
    17     8    13 1   
    18     9    11 2   
    19     9    12 1   
    20     9    13 1   
    21    10    19 1   
    22    10    20 1   
    23    12    21 1   
    24    12    22 1   
@<TRIPOS>SUBSTRUCTURE
     1 S0F         1 TEMP              0 ****  ****    0 ROOT
