@<TRIPOS>MOLECULE
S0F
   23    24     1     0     0
SMALL
No Charge or Current Charge


@<TRIPOS>ATOM
      1 C13          0.2890     0.3290    -1.3370 ca         1 S0F      -0.102500
      2 C14          0.5480     1.6270     0.7050 ca         1 S0F      -0.102500
      3 C11          1.5870    -0.1860    -1.1760 ca         1 S0F      -0.083500
      4 C12          1.8470     1.1120     0.8670 ca         1 S0F      -0.083500
      5 C5          -3.0300     0.5850     1.2510 cc         1 S0F       0.317900
      6 C8          -0.2360     1.2400    -0.4000 ca         1 S0F      -0.071300
      7 C9           2.3640     0.2070    -0.0740 ca         1 S0F      -0.017900
      8 C4          -2.7010     0.8440    -0.0610 cd         1 S0F      -0.240300
      9 C1          -4.4440    -0.7630     0.2870 cd         1 S0F       0.695300
     10 C7          -1.6460     1.7880    -0.5740 c3         1 S0F       0.051200
     11 N2          -4.0300    -0.3370     1.4490 nc         1 S0F      -0.724000
     12 N6          -5.4130    -1.6830     0.2980 nv         1 S0F      -1.036900
     13 S3          -3.6790    -0.1200    -1.1550 ss         1 S0F      -0.113400
     14 Br1          4.1290    -0.4950     0.1470 br         1 S0F      -0.101100
     15 H1          -0.3110     0.0190    -2.1900 ha         1 S0F       0.118500
     16 H2           0.1530     2.3250     1.4400 ha         1 S0F       0.118500
     17 H3           1.9870    -0.8890    -1.9030 ha         1 S0F       0.129500
     18 H4           2.4490     1.4130     1.7210 ha         1 S0F       0.129500
     19 H6          -1.7390     2.7530    -0.0610 hc         1 S0F       0.062200
     20 H7          -1.8260     2.0070    -1.6340 hc         1 S0F       0.062200
     21 H8          -5.5590    -2.1370     1.1910 hn         1 S0F       0.477000
     22 H9          -5.5120    -2.2640    -0.5260 hn         1 S0F       0.477000
     23 H5          -2.5730     1.0390     2.1210 h4         1 S0F       0.037100
@<TRIPOS>BOND
     1     1     3 ar  
     2     1     6 ar  
     3     1    15 1   
     4     2     4 ar  
     5     2     6 ar  
     6     2    16 1   
     7     3     7 ar  
     8     3    17 1   
     9     4     7 ar  
    10     4    18 1   
    11     5     8 2   
    12     5    11 1   
    13     5    23 1   
    14     6    10 1   
    15     7    14 1   
    16     8    10 1   
    17     8    13 1   
    18     9    11 2   
    19     9    12 1   
    20     9    13 1   
    21    10    19 1   
    22    10    20 1   
    23    12    21 1   
    24    12    22 1   
@<TRIPOS>SUBSTRUCTURE
     1 S0F         1 TEMP              0 ****  ****    0 ROOT
