@<TRIPOS>MOLECULE
S0G
   32    33     1     0     0
SMALL
abcg2


@<TRIPOS>ATOM
      1 C3          -0.0570     0.2190    -0.0570 cc         1 S0G      -0.207200
      2 C1           1.0290     1.0320     0.2500 cd         1 S0G       0.372600
      3 C6           0.1840    -1.1010    -0.5270 c          1 S0G       0.597200
      4 C4           2.6190    -0.6660    -0.3500 c          1 S0G       0.627000
      5 C16         -4.0610    -0.2150    -0.1180 c6         1 S0G      -0.066400
      6 C15         -3.2270     0.0980    -1.3570 c6         1 S0G      -0.107400
      7 C14         -3.1700    -0.6480     1.0420 c6         1 S0G      -0.107400
      8 C12         -2.1430     1.1220    -1.0270 c6         1 S0G       0.218800
      9 C13         -2.1030     0.4100     1.3080 c6         1 S0G       0.218800
     10 N5           1.5370    -1.4350    -0.6400 ns         1 S0G      -0.470500
     11 N7          -1.3340     0.7720     0.1290 nh         1 S0G      -0.675400
     12 N2           2.3270     0.6020     0.1120 n          1 S0G      -0.335000
     13 N10          0.8320     2.2670     0.7100 nv         1 S0G      -0.982000
     14 O9          -0.6460    -1.9480    -0.8380 o          1 S0G      -0.554000
     15 O8           3.7580    -1.0700    -0.4880 o          1 S0G      -0.566000
     16 H1          -4.6230     0.6790     0.1760 hc         1 S0G       0.033700
     17 H2          -4.8040    -0.9860    -0.3400 hc         1 S0G       0.033700
     18 H3          -2.7650    -0.8160    -1.7320 hc         1 S0G       0.052200
     19 H4          -3.8620     0.4950    -2.1550 hc         1 S0G       0.052200
     20 H5          -3.7660    -0.7940     1.9480 hc         1 S0G       0.052200
     21 H6          -2.6930    -1.6020     0.8090 hc         1 S0G       0.052200
     22 H7          -1.4810     1.2760    -1.8800 h1         1 S0G       0.036450
     23 H8          -2.6310     2.0870    -0.8310 h1         1 S0G       0.036450
     24 H9          -2.6020     1.3110     1.6890 h1         1 S0G       0.036450
     25 H10         -1.4130     0.0820     2.0870 h1         1 S0G       0.036450
     26 H11          3.3810     1.7810     1.4990 h1         1 S0G       0.058367
     27 H12          4.3660     0.9780     0.2800 h1         1 S0G       0.058367
     28 H13          3.4100     2.3840    -0.1760 h1         1 S0G       0.058367
     29 H14          1.7450    -2.3650    -0.9800 hn         1 S0G       0.343500
     30 H15         -0.1240     2.5790     0.7630 hn         1 S0G       0.511500
     31 H16          1.5650     2.9300     0.8850 hn         1 S0G       0.511500
     32 C11          3.4280     1.4930     0.4500 c3         1 S0G       0.075300
@<TRIPOS>BOND
     1     1     2 2   
     2     1     3 1   
     3     1    11 1   
     4     2    12 1   
     5     2    13 1   
     6     3    10 1   
     7     3    14 2   
     8     4    10 1   
     9     4    12 1   
    10     4    15 2   
    11     5     6 1   
    12     5     7 1   
    13     5    16 1   
    14     5    17 1   
    15     6     8 1   
    16     6    18 1   
    17     6    19 1   
    18     7     9 1   
    19     7    20 1   
    20     7    21 1   
    21     8    11 1   
    22     8    22 1   
    23     8    23 1   
    24     9    11 1   
    25     9    24 1   
    26     9    25 1   
    27    10    29 1   
    28    12    32 1   
    29    13    30 1   
    30    13    31 1   
    31    26    32 1   
    32    27    32 1   
    33    28    32 1   
@<TRIPOS>SUBSTRUCTURE
     1 S0G         1 TEMP              0 ****  ****    0 ROOT
