@<TRIPOS>MOLECULE
S0G
   32    33     1     0     0
SMALL
No Charge or Current Charge


@<TRIPOS>ATOM
      1 C3           0.0140     0.2620    -0.2700 cc         1 S0G      -0.207200
      2 C1           1.0450     0.9720     0.3290 cd         1 S0G       0.372600
      3 C6           0.3760    -0.9340    -1.0950 c          1 S0G       0.597200
      4 C4           2.7220    -0.5210    -0.5790 c          1 S0G       0.627000
      5 C16         -4.1740    -0.1560     0.1210 c6         1 S0G      -0.066400
      6 C15         -3.4390    -0.2130    -1.2380 c6         1 S0G      -0.107400
      7 C14         -3.1670    -0.3580     1.2760 c6         1 S0G      -0.107400
      8 C12         -2.2640     0.7980    -1.2930 c6         1 S0G       0.218800
      9 C13         -2.0180     0.6770     1.2050 c6         1 S0G       0.218800
     10 N5           1.7030    -1.1880    -1.1630 ns         1 S0G      -0.470500
     11 N7          -1.3430     0.6440    -0.1270 nh         1 S0G      -0.675400
     12 N2           2.3750     0.5880     0.2110 n          1 S0G      -0.335000
     13 N10          0.7750     2.1160     1.0140 nv         1 S0G      -0.982000
     14 O9          -0.4110    -1.6630    -1.6790 o          1 S0G      -0.554000
     15 O8           3.8710    -0.8940    -0.7510 o          1 S0G      -0.566000
     16 H1          -4.6800     0.8140     0.2310 hc         1 S0G       0.033700
     17 H2          -4.9550    -0.9270     0.1600 hc         1 S0G       0.033700
     18 H3          -3.0590    -1.2290    -1.4060 hc         1 S0G       0.052200
     19 H4          -4.1420    -0.0050    -2.0550 hc         1 S0G       0.052200
     20 H5          -3.6810    -0.2730     2.2430 hc         1 S0G       0.052200
     21 H6          -2.7480    -1.3720     1.2310 hc         1 S0G       0.052200
     22 H7          -1.7180     0.6730    -2.2390 h1         1 S0G       0.036450
     23 H8          -2.6750     1.8190    -1.2970 h1         1 S0G       0.036450
     24 H9          -2.4250     1.6820     1.3910 h1         1 S0G       0.036450
     25 H10         -1.2980     0.4620     2.0080 h1         1 S0G       0.036450
     26 H11          3.1710     1.5590     1.9390 h1         1 S0G       0.058367
     27 H12          4.3880     0.7310     0.9600 h1         1 S0G       0.058367
     28 H13          3.6850     2.2590     0.3720 h1         1 S0G       0.058367
     29 H14          1.9670    -1.9850    -1.7190 hn         1 S0G       0.343500
     30 H15         -0.1740     2.4530     0.8860 hn         1 S0G       0.511500
     31 H16          1.4870     2.8350     1.0650 hn         1 S0G       0.511500
     32 C11          3.4680     1.3260     0.9080 c3         1 S0G       0.075300
@<TRIPOS>BOND
     1     1     2 2   
     2     1     3 1   
     3     1    11 1   
     4     2    12 1   
     5     2    13 1   
     6     3    10 1   
     7     3    14 2   
     8     4    10 1   
     9     4    12 1   
    10     4    15 2   
    11     5     6 1   
    12     5     7 1   
    13     5    16 1   
    14     5    17 1   
    15     6     8 1   
    16     6    18 1   
    17     6    19 1   
    18     7     9 1   
    19     7    20 1   
    20     7    21 1   
    21     8    11 1   
    22     8    22 1   
    23     8    23 1   
    24     9    11 1   
    25     9    24 1   
    26     9    25 1   
    27    10    29 1   
    28    12    32 1   
    29    13    30 1   
    30    13    31 1   
    31    26    32 1   
    32    27    32 1   
    33    28    32 1   
@<TRIPOS>SUBSTRUCTURE
     1 S0G         1 TEMP              0 ****  ****    0 ROOT
