@<TRIPOS>MOLECULE
S0H
   15    14     1     0     0
SMALL
abcg2


@<TRIPOS>ATOM
      1 P1          -1.1310     0.0050    -0.0120 p5         1 S0H       1.308500
      2 C2           0.5430    -0.6360     0.5110 c3         1 S0H      -0.374400
      3 C3           1.7410    -0.1510    -0.2830 c3         1 S0H       0.204300
      4 O6           1.8700     1.2530    -0.1150 oh         1 S0H      -0.616000
      5 C1           3.0280    -0.8580     0.1300 c3         1 S0H      -0.126100
      6 O13         -1.1620    -0.1810    -1.5380 o          1 S0H      -0.938833
      7 O14         -1.2210     1.4680     0.4350 o          1 S0H      -0.938833
      8 O15         -2.1140    -0.9130     0.7360 o          1 S0H      -0.938833
      9 H21          0.5230    -1.7270     0.4170 hc         1 S0H       0.008700
     10 H22          0.7100    -0.4350     1.5780 hc         1 S0H       0.008700
     11 H3           1.5500    -0.3810    -1.3410 h1         1 S0H       0.037700
     12 HO6          2.6760     1.5250    -0.5640 ho         1 S0H       0.370000
     13 H11          3.8880    -0.4990    -0.4420 hc         1 S0H      -0.000967
     14 H12          3.2370    -0.7010     1.1900 hc         1 S0H      -0.000967
     15 H13A         2.9510    -1.9330    -0.0400 hc         1 S0H      -0.000967
@<TRIPOS>BOND
     1     1     2 1   
     2     1     6 1   
     3     1     7 1   
     4     1     8 1   
     5     2     3 1   
     6     2     9 1   
     7     2    10 1   
     8     3     4 1   
     9     3     5 1   
    10     3    11 1   
    11     4    12 1   
    12     5    13 1   
    13     5    14 1   
    14     5    15 1   
@<TRIPOS>SUBSTRUCTURE
     1 S0H         1 TEMP              0 ****  ****    0 ROOT
