@<TRIPOS>MOLECULE
S0H
   15    14     1     0     0
SMALL
No Charge or Current Charge


@<TRIPOS>ATOM
      1 P1          -1.1060    -0.1060    -0.0530 p5         1 S0H       1.308500
      2 C2           0.5470    -0.5590     0.6200 c3         1 S0H      -0.374400
      3 C3           1.7340    -0.0650    -0.2250 c3         1 S0H       0.204300
      4 O6           2.0270     1.2900     0.1140 oh         1 S0H      -0.616000
      5 C1           3.0110    -0.8990     0.0130 c3         1 S0H      -0.126100
      6 O13         -1.1660    -0.4780    -1.4970 o          1 S0H      -0.938833
      7 O14         -1.3490     1.3550     0.1200 o          1 S0H      -0.938833
      8 O15         -2.1330    -0.8770     0.7060 o          1 S0H      -0.938833
      9 H21          0.5590    -1.6550     0.6510 hc         1 S0H       0.008700
     10 H22          0.6310    -0.2110     1.6560 hc         1 S0H       0.008700
     11 H3           1.4810    -0.1440    -1.2910 h1         1 S0H       0.037700
     12 HO6          2.8530     1.5210    -0.3580 ho         1 S0H       0.370000
     13 H11          3.8420    -0.5180    -0.5940 hc         1 S0H      -0.000967
     14 H12          3.3130    -0.8700     1.0670 hc         1 S0H      -0.000967
     15 H13A         2.8450    -1.9470    -0.2670 hc         1 S0H      -0.000967
@<TRIPOS>BOND
     1     1     2 1   
     2     1     6 1   
     3     1     7 1   
     4     1     8 1   
     5     2     3 1   
     6     2     9 1   
     7     2    10 1   
     8     3     4 1   
     9     3     5 1   
    10     3    11 1   
    11     4    12 1   
    12     5    13 1   
    13     5    14 1   
    14     5    15 1   
@<TRIPOS>SUBSTRUCTURE
     1 S0H         1 TEMP              0 ****  ****    0 ROOT
