@<TRIPOS>MOLECULE
S0I
   32    34     1     0     0
SMALL
abcg2


@<TRIPOS>ATOM
      1 C18          4.8160    -0.5830    -0.1900 ca         1 S0I      -0.105000
      2 C16          4.3720     0.4320     0.6450 ca         1 S0I      -0.114000
      3 C17          3.9060    -1.5040    -0.6980 ca         1 S0I      -0.114000
      4 C15         -4.2180    -1.2550     0.3190 ca         1 S0I      -0.087000
      5 C11         -3.2640    -2.2590     0.2060 ca         1 S0I      -0.128000
      6 C12          3.0230     0.5230     0.9710 ca         1 S0I      -0.094000
      7 C13          2.5620    -1.4080    -0.3720 ca         1 S0I      -0.094000
      8 C10         -3.8460     0.0770     0.2120 ca         1 S0I      -0.145000
      9 C6          -1.9380    -1.9260    -0.0260 ca         1 S0I      -0.077000
     10 C7           2.1080    -0.3960     0.4720 ca         1 S0I      -0.098300
     11 C5          -2.5110     0.4090     0.0070 ca         1 S0I      -0.049000
     12 C2          -1.5480    -0.5960    -0.1240 ca         1 S0I       0.200000
     13 C8          -0.8990     2.1420    -0.5450 c          1 S0I       0.537000
     14 C4          -0.0760     0.9930    -1.0990 c6         1 S0I       0.095800
     15 C3           0.6510    -0.3120     0.8400 c3         1 S0I       0.232100
     16 N9          -2.0970     1.7390    -0.0380 ns         1 S0I      -0.154000
     17 N1          -0.2030    -0.2360    -0.3430 nh         1 S0I      -0.758400
     18 H1           5.8650    -0.6560    -0.4470 ha         1 S0I       0.112000
     19 H2           5.0710     1.1570     1.0400 ha         1 S0I       0.113500
     20 H3           4.2470    -2.2980    -1.3500 ha         1 S0I       0.113500
     21 H4          -5.2570    -1.5050     0.4880 ha         1 S0I       0.117000
     22 H5          -3.5540    -3.2990     0.2850 ha         1 S0I       0.119000
     23 H6           2.6790     1.3230     1.6170 ha         1 S0I       0.116500
     24 H7           1.8570    -2.1230    -0.7790 ha         1 S0I       0.116500
     25 H8          -4.5880     0.8610     0.3010 ha         1 S0I       0.118000
     26 H9          -1.1880    -2.7000    -0.1340 ha         1 S0I       0.125000
     27 H10         -0.4020     0.8200    -2.1310 h1         1 S0I       0.088700
     28 H11          0.9690     1.2960    -1.1460 h1         1 S0I       0.088700
     29 H12          0.3660    -1.2110     1.3910 h1         1 S0I       0.048700
     30 H13          0.4930     0.5330     1.5260 h1         1 S0I       0.048700
     31 H14         -2.7450     2.4550     0.2620 hn         1 S0I       0.158000
     32 O14         -0.5550     3.3040    -0.5790 o          1 S0I      -0.532000
@<TRIPOS>BOND
     1     1     2 ar  
     2     1     3 ar  
     3     1    18 1   
     4     2     6 ar  
     5     2    19 1   
     6     3     7 ar  
     7     3    20 1   
     8     4     5 ar  
     9     4     8 ar  
    10     4    21 1   
    11     5     9 ar  
    12     5    22 1   
    13     6    10 ar  
    14     6    23 1   
    15     7    10 ar  
    16     7    24 1   
    17     8    11 ar  
    18     8    25 1   
    19     9    12 ar  
    20     9    26 1   
    21    10    15 1   
    22    11    12 ar  
    23    11    16 1   
    24    12    17 1   
    25    13    14 1   
    26    13    16 1   
    27    13    32 2   
    28    14    17 1   
    29    14    27 1   
    30    14    28 1   
    31    15    17 1   
    32    15    29 1   
    33    15    30 1   
    34    16    31 1   
@<TRIPOS>SUBSTRUCTURE
     1 S0I         1 TEMP              0 ****  ****    0 ROOT
