@<TRIPOS>MOLECULE
S0I
   32    34     1     0     0
SMALL
No Charge or Current Charge


@<TRIPOS>ATOM
      1 C18          4.8730    -0.0500    -0.3360 ca         1 S0I      -0.105000
      2 C16          4.2700     0.3680     0.8620 ca         1 S0I      -0.114000
      3 C17          4.1490    -0.8360    -1.2480 ca         1 S0I      -0.114000
      4 C15         -4.4450    -0.9310     0.7020 ca         1 S0I      -0.087000
      5 C11         -3.5030    -1.8560     1.1750 ca         1 S0I      -0.128000
      6 C12          2.9430     0.0000     1.1490 ca         1 S0I      -0.094000
      7 C13          2.8230    -1.2050    -0.9620 ca         1 S0I      -0.094000
      8 C10         -4.0130     0.2170     0.0220 ca         1 S0I      -0.145000
      9 C6          -2.1290    -1.6360     0.9700 ca         1 S0I      -0.077000
     10 C7           2.2120    -0.7880     0.2370 ca         1 S0I      -0.098300
     11 C5          -2.6400     0.4410    -0.1850 ca         1 S0I      -0.049000
     12 C2          -1.6730    -0.4840     0.2870 ca         1 S0I       0.200000
     13 C8          -0.9380     1.9810    -1.1620 c          1 S0I       0.537000
     14 C4           0.1620     1.0050    -0.6680 c6         1 S0I       0.095800
     15 C3           0.7690    -1.1850     0.5460 c3         1 S0I       0.232100
     16 N9          -2.2300     1.6040    -0.8730 ns         1 S0I      -0.154000
     17 N1          -0.2800    -0.2420     0.0690 nh         1 S0I      -0.758400
     18 H1           5.8990     0.2360    -0.5580 ha         1 S0I       0.112000
     19 H2           4.8290     0.9780     1.5690 ha         1 S0I       0.113500
     20 H3           4.6150    -1.1600    -2.1760 ha         1 S0I       0.113500
     21 H4          -5.5080    -1.1040     0.8610 ha         1 S0I       0.117000
     22 H5          -3.8360    -2.7470     1.7030 ha         1 S0I       0.119000
     23 H6           2.4820     0.3300     2.0770 ha         1 S0I       0.116500
     24 H7           2.2670    -1.8110    -1.6740 ha         1 S0I       0.116500
     25 H8          -4.7460     0.9330    -0.3450 ha         1 S0I       0.118000
     26 H9          -1.4280    -2.3710     1.3500 ha         1 S0I       0.125000
     27 H10          0.7310     0.7300    -1.5680 h1         1 S0I       0.088700
     28 H11          0.8200     1.6090    -0.0280 h1         1 S0I       0.088700
     29 H12          0.5900    -2.1740     0.1040 h1         1 S0I       0.048700
     30 H13          0.6780    -1.3010     1.6350 h1         1 S0I       0.048700
     31 H14         -2.9640     2.2270    -1.1850 hn         1 S0I       0.158000
     32 O14         -0.6810     3.0160    -1.7680 o          1 S0I      -0.532000
@<TRIPOS>BOND
     1     1     2 ar  
     2     1     3 ar  
     3     1    18 1   
     4     2     6 ar  
     5     2    19 1   
     6     3     7 ar  
     7     3    20 1   
     8     4     5 ar  
     9     4     8 ar  
    10     4    21 1   
    11     5     9 ar  
    12     5    22 1   
    13     6    10 ar  
    14     6    23 1   
    15     7    10 ar  
    16     7    24 1   
    17     8    11 ar  
    18     8    25 1   
    19     9    12 ar  
    20     9    26 1   
    21    10    15 1   
    22    11    12 ar  
    23    11    16 1   
    24    12    17 1   
    25    13    14 1   
    26    13    16 1   
    27    13    32 2   
    28    14    17 1   
    29    14    27 1   
    30    14    28 1   
    31    15    17 1   
    32    15    29 1   
    33    15    30 1   
    34    16    31 1   
@<TRIPOS>SUBSTRUCTURE
     1 S0I         1 TEMP              0 ****  ****    0 ROOT
