@<TRIPOS>MOLECULE
S0J
   38    40     1     0     0
SMALL
No Charge or Current Charge


@<TRIPOS>ATOM
      1 C3           0.4360     1.9740     0.2990 cc         1 S0J      -0.150000
      2 C15          3.2440     1.1000     0.6500 cd         1 S0J      -0.284000
      3 C4           0.9320     0.7090    -0.0850 cc         1 S0J      -0.209500
      4 C14          2.3040     0.2680     0.0790 cc         1 S0J       0.439500
      5 C2          -0.8910     2.0540    -0.0020 cd         1 S0J      -0.177300
      6 C5          -0.1070    -0.0180    -0.6320 cd         1 S0J      -0.079300
      7 C17          4.0180    -1.0620    -0.0330 cd         1 S0J       0.692300
      8 C11         -5.4960    -1.3000     0.6290 c5         1 S0J      -0.112400
      9 C10         -4.9800    -0.3870    -0.5180 c5         1 S0J      -0.109400
     10 C12         -4.2000    -2.0140     1.1240 c5         1 S0J       0.147600
     11 C9          -3.5450    -0.1050    -0.0240 c5         1 S0J       0.137300
     12 C1          -1.8370     3.2070     0.2250 c3         1 S0J      -0.019800
     13 C6          -0.1140    -1.4320    -1.1820 c3         1 S0J      -0.034800
     14 C8          -2.5940     0.4970    -1.0830 c3         1 S0J       0.073600
     15 N19          2.7510    -0.9680    -0.3150 nc         1 S0J      -0.730000
     16 N7          -1.2400     0.8260    -0.5880 na         1 S0J       0.025000
     17 N18          4.6230    -2.2070    -0.3660 nv         1 S0J      -1.038900
     18 O13         -3.1200    -1.4200     0.3710 os         1 S0J      -0.437000
     19 S16          4.8100     0.3110     0.7150 ss         1 S0J      -0.129400
     20 H1           1.0200     2.7650     0.7620 ha         1 S0J       0.128000
     21 H3          -5.9450    -0.7110     1.4370 hc         1 S0J       0.053200
     22 H4          -6.2570    -2.0100     0.2850 hc         1 S0J       0.053200
     23 H5          -4.9770    -0.9100    -1.4820 hc         1 S0J       0.050700
     24 H6          -5.5760     0.5260    -0.6340 hc         1 S0J       0.050700
     25 H7          -4.0310    -1.8430     2.1960 h1         1 S0J       0.049700
     26 H8          -4.2170    -3.0960     0.9380 h1         1 S0J       0.049700
     27 H9          -3.5550     0.5460     0.8620 h1         1 S0J       0.048700
     28 H10         -2.2000     3.6130    -0.7270 hc         1 S0J       0.040367
     29 H11         -2.7080     2.8970     0.8150 hc         1 S0J       0.040367
     30 H12         -1.3440     4.0220     0.7660 hc         1 S0J       0.040367
     31 H13          0.2450    -2.1430    -0.4300 hc         1 S0J       0.054033
     32 H14         -1.1080    -1.7730    -1.4850 hc         1 S0J       0.054033
     33 H15          0.5390    -1.5120    -2.0590 hc         1 S0J       0.054033
     34 H16         -2.5170    -0.1860    -1.9360 h1         1 S0J       0.063200
     35 H17         -3.0490     1.4180    -1.4670 h1         1 S0J       0.063200
     36 H18          5.6300    -2.1810    -0.4690 hn         1 S0J       0.471500
     37 H19          4.1130    -2.7950    -1.0120 hn         1 S0J       0.471500
     38 H2           3.1170     2.1050     1.0270 h4         1 S0J       0.159000
@<TRIPOS>BOND
     1     1     3 1   
     2     1     5 2   
     3     1    20 1   
     4     2     4 2   
     5     2    19 1   
     6     2    38 1   
     7     3     4 1   
     8     3     6 2   
     9     4    15 1   
    10     5    12 1   
    11     5    16 1   
    12     6    13 1   
    13     6    16 1   
    14     7    15 2   
    15     7    17 1   
    16     7    19 1   
    17     8     9 1   
    18     8    10 1   
    19     8    21 1   
    20     8    22 1   
    21     9    11 1   
    22     9    23 1   
    23     9    24 1   
    24    10    18 1   
    25    10    25 1   
    26    10    26 1   
    27    11    14 1   
    28    11    18 1   
    29    11    27 1   
    30    12    28 1   
    31    12    29 1   
    32    12    30 1   
    33    13    31 1   
    34    13    32 1   
    35    13    33 1   
    36    14    16 1   
    37    14    34 1   
    38    14    35 1   
    39    17    36 1   
    40    17    37 1   
@<TRIPOS>SUBSTRUCTURE
     1 S0J         1 TEMP              0 ****  ****    0 ROOT
