@<TRIPOS>MOLECULE
S0J
   38    40     1     0     0
SMALL
bcc


@<TRIPOS>ATOM
      1 C3           0.3970     2.0080     0.3210 cc         1 S0J      -0.168000
      2 C15          3.3150     1.1280     0.2230 cd         1 S0J      -0.222400
      3 C4           0.8800     0.7490    -0.1410 cc         1 S0J      -0.209500
      4 C14          2.2610     0.3010    -0.0200 cc         1 S0J       0.504800
      5 C2          -0.9350     2.0830     0.0260 cd         1 S0J      -0.126600
      6 C5          -0.1920     0.0900    -0.7140 cd         1 S0J      -0.028600
      7 C17          3.8540    -1.2320     0.0350 cd         1 S0J       0.692300
      8 C11         -5.1860    -1.6880     0.3650 c5         1 S0J      -0.112400
      9 C10         -4.9100    -0.3320    -0.3040 c5         1 S0J      -0.109400
     10 C12         -3.9550    -1.8990     1.2460 c5         1 S0J       0.124400
     11 C9          -3.4750     0.0110     0.1320 c5         1 S0J       0.114100
     12 C1          -1.9020     3.1850     0.2770 c3         1 S0J      -0.019800
     13 C6          -0.2690    -1.2160    -1.4250 c3         1 S0J      -0.034800
     14 C8          -2.6330     0.5770    -0.9980 c3         1 S0J       0.044300
     15 N19          2.5850    -1.0330    -0.1260 nc         1 S0J      -0.730000
     16 N7          -1.2830     0.9130    -0.6040 na         1 S0J      -0.047100
     17 N18          4.4420    -2.4530     0.0450 nv         1 S0J      -0.928500
     18 O13         -2.9130    -1.1950     0.6020 os         1 S0J      -0.390600
     19 S16          4.7780     0.2130     0.3410 ss         1 S0J      -0.274300
     20 H1           0.9640     2.7740     0.8280 ha         1 S0J       0.146000
     21 H3          -6.1060    -1.6930     0.9490 hc         1 S0J       0.053200
     22 H4          -5.2660    -2.4800    -0.3800 hc         1 S0J       0.053200
     23 H5          -4.9860    -0.4070    -1.3910 hc         1 S0J       0.050700
     24 H6          -5.6070     0.4420     0.0150 hc         1 S0J       0.050700
     25 H7          -4.1290    -1.4980     2.2540 h1         1 S0J       0.049700
     26 H8          -3.6590    -2.9430     1.3450 h1         1 S0J       0.049700
     27 H9          -3.5140     0.7410     0.9550 h1         1 S0J       0.048700
     28 H10         -2.3360     3.5730    -0.6470 hc         1 S0J       0.040367
     29 H11         -2.7330     2.8800     0.9160 hc         1 S0J       0.040367
     30 H12         -1.3930     4.0100     0.7730 hc         1 S0J       0.040367
     31 H13         -0.9440    -1.9140    -0.9280 hc         1 S0J       0.054033
     32 H14         -0.6270    -1.0930    -2.4500 hc         1 S0J       0.054033
     33 H15          0.7150    -1.6730    -1.4680 hc         1 S0J       0.054033
     34 H16         -2.6000    -0.1360    -1.8230 h1         1 S0J       0.063200
     35 H17         -3.1230     1.4720    -1.3810 h1         1 S0J       0.063200
     36 H18          5.4290    -2.5070    -0.1470 hn         1 S0J       0.416300
     37 H19          3.9060    -3.1940    -0.3770 hn         1 S0J       0.416300
     38 H2           3.3240     2.2010     0.3250 h4         1 S0J       0.177000
@<TRIPOS>BOND
     1     1     3 1   
     2     1     5 2   
     3     1    20 1   
     4     2     4 2   
     5     2    19 1   
     6     2    38 1   
     7     3     4 1   
     8     3     6 2   
     9     4    15 1   
    10     5    12 1   
    11     5    16 1   
    12     6    13 1   
    13     6    16 1   
    14     7    15 2   
    15     7    17 1   
    16     7    19 1   
    17     8     9 1   
    18     8    10 1   
    19     8    21 1   
    20     8    22 1   
    21     9    11 1   
    22     9    23 1   
    23     9    24 1   
    24    10    18 1   
    25    10    25 1   
    26    10    26 1   
    27    11    14 1   
    28    11    18 1   
    29    11    27 1   
    30    12    28 1   
    31    12    29 1   
    32    12    30 1   
    33    13    31 1   
    34    13    32 1   
    35    13    33 1   
    36    14    16 1   
    37    14    34 1   
    38    14    35 1   
    39    17    36 1   
    40    17    37 1   
@<TRIPOS>SUBSTRUCTURE
     1 S0J         1 TEMP              0 ****  ****    0 ROOT
