@<TRIPOS>MOLECULE
S0K
   36    38     1     0     0
SMALL
No Charge or Current Charge


@<TRIPOS>ATOM
      1 C9           3.2710     3.1690     0.4170 ca         1 S0K      -0.137000
      2 C11          2.0480     3.8510     0.3440 ca         1 S0K      -0.081000
      3 C4           3.2970     1.7670     0.3450 ca         1 S0K      -0.102000
      4 C6           0.8490     3.1340     0.1980 ca         1 S0K      -0.137000
      5 C17         -3.9280     0.1480    -0.4980 cc         1 S0K      -0.082000
      6 C19         -4.5830    -1.0550    -0.4730 cd         1 S0K      -0.257000
      7 C18         -2.1170    -1.2460    -0.0360 cd         1 S0K      -0.229000
      8 C14         -2.5300     0.0550    -0.2540 cc         1 S0K      -0.172600
      9 C1           2.1030     1.0350     0.1980 ca         1 S0K       0.157000
     10 C2           0.8660     1.7220     0.1200 ca         1 S0K       0.007000
     11 C10         -1.6390     1.2520    -0.2390 c          1 S0K       0.642700
     12 C7           2.9010    -1.1670     1.1400 c6         1 S0K       0.139800
     13 C8           2.1440    -1.0200    -1.2410 c6         1 S0K       0.139800
     14 C12          2.5260    -2.6800     1.1140 c6         1 S0K       0.151100
     15 C13          1.8120    -2.5420    -1.1800 c6         1 S0K       0.151100
     16 N3           2.1430    -0.3800     0.1140 nh         1 S0K      -0.788400
     17 N5          -0.3110     0.9360    -0.0040 ns         1 S0K      -0.139000
     18 O15         -2.0520     2.3920    -0.4260 o          1 S0K      -0.587100
     19 O16          2.6620    -3.2170    -0.2230 os         1 S0K      -0.447000
     20 S20         -3.4690    -2.3890    -0.1360 ss         1 S0K       0.235000
     21 H1           4.1990     3.7260     0.5290 ha         1 S0K       0.116000
     22 H2           2.0270     4.9380     0.4040 ha         1 S0K       0.115000
     23 H3           4.2500     1.2470     0.3950 ha         1 S0K       0.113000
     24 H4          -0.0820     3.6900     0.1580 ha         1 S0K       0.150000
     25 H6          -5.6370    -1.2510    -0.6280 h4         1 S0K       0.155000
     26 H7          -1.1250    -1.6220     0.1810 h4         1 S0K       0.152000
     27 H8           2.6960    -0.7730     2.1460 h1         1 S0K       0.049700
     28 H9           3.9830    -1.0730     0.9650 h1         1 S0K       0.049700
     29 H10          3.1310    -0.8930    -1.7110 h1         1 S0K       0.049700
     30 H11          1.4090    -0.5290    -1.8950 h1         1 S0K       0.049700
     31 H12          3.1820    -3.2390     1.7950 h1         1 S0K       0.049450
     32 H13          1.4880    -2.8130     1.4530 h1         1 S0K       0.049450
     33 H14          0.7610    -2.6850    -0.8920 h1         1 S0K       0.049450
     34 H15          1.9560    -2.9950    -2.1710 h1         1 S0K       0.049450
     35 H16         -0.1320    -0.0530     0.0970 hn         1 S0K       0.181000
     36 H5          -4.4230     1.0980    -0.6880 ha         1 S0K       0.155000
@<TRIPOS>BOND
     1     1     2 ar  
     2     1     3 ar  
     3     1    21 1   
     4     2     4 ar  
     5     2    22 1   
     6     3     9 ar  
     7     3    23 1   
     8     4    10 ar  
     9     4    24 1   
    10     5     6 2   
    11     5     8 1   
    12     5    36 1   
    13     6    20 1   
    14     6    25 1   
    15     7     8 2   
    16     7    20 1   
    17     7    26 1   
    18     8    11 1   
    19     9    10 ar  
    20     9    16 1   
    21    10    17 1   
    22    11    17 1   
    23    11    18 2   
    24    12    14 1   
    25    12    16 1   
    26    12    27 1   
    27    12    28 1   
    28    13    15 1   
    29    13    16 1   
    30    13    29 1   
    31    13    30 1   
    32    14    19 1   
    33    14    31 1   
    34    14    32 1   
    35    15    19 1   
    36    15    33 1   
    37    15    34 1   
    38    17    35 1   
@<TRIPOS>SUBSTRUCTURE
     1 S0K         1 TEMP              0 ****  ****    0 ROOT
