@<TRIPOS>MOLECULE
S0K
   36    38     1     0     0
SMALL
abcg2


@<TRIPOS>ATOM
      1 C9           3.2380     3.0750     0.2760 ca         1 S0K      -0.137000
      2 C11          2.0260     3.7490     0.2750 ca         1 S0K      -0.081000
      3 C4           3.2420     1.6890     0.1890 ca         1 S0K      -0.102000
      4 C6           0.8220     3.0640     0.1930 ca         1 S0K      -0.137000
      5 C17         -3.9000     0.1820    -0.4660 cc         1 S0K      -0.082000
      6 C19         -4.5950    -0.9820    -0.3890 cd         1 S0K      -0.257000
      7 C18         -2.2590    -1.2440     0.3370 cd         1 S0K      -0.229000
      8 C14         -2.5430     0.0370    -0.0540 cc         1 S0K      -0.172600
      9 C1           2.0520     0.9830     0.1060 ca         1 S0K       0.157000
     10 C2           0.8260     1.6730     0.1080 ca         1 S0K       0.007000
     11 C10         -1.6100     1.1920    -0.0450 c          1 S0K       0.642700
     12 C7           2.6170    -1.1410     1.1310 c6         1 S0K       0.139800
     13 C8           2.4560    -0.9660    -1.2650 c6         1 S0K       0.139800
     14 C12          2.3190    -2.6230     1.0010 c6         1 S0K       0.151100
     15 C13          2.1680    -2.4540    -1.3160 c6         1 S0K       0.151100
     16 N3           1.9980    -0.4350     0.0160 nh         1 S0K      -0.788400
     17 N5          -0.3010     0.8620     0.0340 ns         1 S0K      -0.139000
     18 O15         -2.0290     2.3360    -0.1120 o          1 S0K      -0.587100
     19 O16          2.7650    -3.1350    -0.2350 os         1 S0K      -0.447000
     20 S20         -3.6170    -2.2620     0.1970 ss         1 S0K       0.235000
     21 H1           4.1700     3.6200     0.3420 ha         1 S0K       0.116000
     22 H2           2.0090     4.8300     0.3410 ha         1 S0K       0.115000
     23 H3           4.1810     1.1480     0.1870 ha         1 S0K       0.113000
     24 H4          -0.1050     3.6150     0.1970 ha         1 S0K       0.150000
     25 H6          -5.6280    -1.1580    -0.6450 h4         1 S0K       0.155000
     26 H7          -1.3360    -1.6470     0.7270 h4         1 S0K       0.152000
     27 H8           2.1990    -0.7710     2.0680 h1         1 S0K       0.049700
     28 H9           3.7050    -0.9850     1.1680 h1         1 S0K       0.049700
     29 H10          3.5290    -0.7840    -1.4200 h1         1 S0K       0.049700
     30 H11          1.9190    -0.4680    -2.0750 h1         1 S0K       0.049700
     31 H12          2.8300    -3.1780     1.7890 h1         1 S0K       0.049450
     32 H13          1.2380    -2.7870     1.1190 h1         1 S0K       0.049450
     33 H14          1.0790    -2.6110    -1.3170 h1         1 S0K       0.049450
     34 H15          2.5690    -2.8820    -2.2350 h1         1 S0K       0.049450
     35 H16         -0.0320    -0.1170     0.0030 hn         1 S0K       0.181000
     36 H5          -4.3280     1.1120    -0.8100 ha         1 S0K       0.155000
@<TRIPOS>BOND
     1     1     2 ar  
     2     1     3 ar  
     3     1    21 1   
     4     2     4 ar  
     5     2    22 1   
     6     3     9 ar  
     7     3    23 1   
     8     4    10 ar  
     9     4    24 1   
    10     5     6 2   
    11     5     8 1   
    12     5    36 1   
    13     6    20 1   
    14     6    25 1   
    15     7     8 2   
    16     7    20 1   
    17     7    26 1   
    18     8    11 1   
    19     9    10 ar  
    20     9    16 1   
    21    10    17 1   
    22    11    17 1   
    23    11    18 2   
    24    12    14 1   
    25    12    16 1   
    26    12    27 1   
    27    12    28 1   
    28    13    15 1   
    29    13    16 1   
    30    13    29 1   
    31    13    30 1   
    32    14    19 1   
    33    14    31 1   
    34    14    32 1   
    35    15    19 1   
    36    15    33 1   
    37    15    34 1   
    38    17    35 1   
@<TRIPOS>SUBSTRUCTURE
     1 S0K         1 TEMP              0 ****  ****    0 ROOT
