@<TRIPOS>MOLECULE
S0L
   52    57     1     0     0
SMALL
No Charge or Current Charge


@<TRIPOS>ATOM
      1 N01         -0.8120     1.4140     0.1050 ns         1 S0L      -0.128000
      2 C02         -2.2300     1.3640     0.2230 ca         1 S0L      -0.021000
      3 C03         -2.9610     0.1670     0.3990 ca         1 S0L      -0.095000
      4 C04         -4.3720     0.1780     0.4930 ca         1 S0L      -0.099500
      5 C05         -5.0390     1.4230     0.4710 ca         1 S0L      -0.125000
      6 C06         -4.3210     2.6160     0.3020 ca         1 S0L      -0.089000
      7 C07         -2.9250     2.5850     0.1730 ca         1 S0L      -0.151000
      8 C08         -6.6170    -2.6870     0.7080 cc         1 S0L       0.371400
      9 N09         -5.5560    -3.1320     1.3630 nd         1 S0L      -0.354000
     10 N10         -4.6040    -2.1360     1.3610 nd         1 S0L      -0.346000
     11 C11         -5.0970    -1.0840     0.7210 cc         1 S0L       0.437000
     12 N12         -6.3680    -1.4040     0.2880 na         1 S0L      -0.337000
     13 C13          0.1650     0.4260     0.0220 c          1 S0L       0.510600
     14 O14         -0.0880    -0.7780     0.0210 o          1 S0L      -0.565100
     15 C15         -7.2250    -0.6240    -0.6180 cx         1 S0L       0.010300
     16 C16          1.5960     0.9640    -0.0770 ca         1 S0L       0.306500
     17 C17          2.6770     0.0590    -0.1650 ca         1 S0L      -0.128000
     18 N18          1.8020     2.3150    -0.0780 nb         1 S0L      -0.687000
     19 C19          3.9970     0.5420    -0.2530 ca         1 S0L       0.056800
     20 C20         -8.6020    -1.0220    -1.1010 cx         1 S0L      -0.130400
     21 C21         -8.4390     0.1680    -0.1890 cx         1 S0L      -0.130400
     22 C22          4.1840     1.9350    -0.2490 ca         1 S0L      -0.170000
     23 C23          3.0690     2.7790    -0.1620 ca         1 S0L       0.360900
     24 N24          5.0870    -0.3300    -0.3380 na         1 S0L      -0.088300
     25 C25          5.0810    -1.5420    -0.9910 cc         1 S0L       0.419400
     26 N26          6.2830    -2.0980    -0.8900 nd         1 S0L      -0.656000
     27 C27          7.0490    -1.2050    -0.1600 cd         1 S0L       0.288300
     28 C28          6.3300    -0.0910     0.1970 cc         1 S0L      -0.214000
     29 C29          8.4710    -1.4630     0.1740 cx         1 S0L      -0.146000
     30 C30          9.5470    -1.3130    -0.8800 cx         1 S0L      -0.125400
     31 C31          9.4770    -0.3350     0.2680 cx         1 S0L      -0.125400
     32 H1          -0.4330     2.3530     0.0780 hn         1 S0L       0.183000
     33 H2          -2.4480    -0.7880     0.4570 ha         1 S0L       0.167000
     34 H3          -6.1150     1.4780     0.6080 ha         1 S0L       0.118000
     35 H4          -4.8470     3.5680     0.2830 ha         1 S0L       0.115000
     36 H5          -2.3810     3.5180     0.0440 ha         1 S0L       0.116000
     37 H7          -6.5670    -0.1680    -1.3600 h1         1 S0L       0.106700
     38 H8           2.4810    -1.0100    -0.1500 ha         1 S0L       0.162000
     39 H9          -8.8440    -0.8330    -2.1440 hc         1 S0L       0.085450
     40 H10         -9.0670    -1.9120    -0.6830 hc         1 S0L       0.085450
     41 H11         -8.7720     0.0660     0.8410 hc         1 S0L       0.085450
     42 H12         -8.5720     1.1590    -0.6160 hc         1 S0L       0.085450
     43 H13          5.1750     2.3720    -0.3230 ha         1 S0L       0.139000
     44 H14          3.1920     3.8610    -0.1610 h4         1 S0L       0.029100
     45 H15          4.2150    -1.9410    -1.5050 h5         1 S0L       0.066100
     46 H16          6.5990     0.7880     0.7660 h4         1 S0L       0.161000
     47 H17          8.5900    -2.2860     0.8750 hc         1 S0L       0.096700
     48 H18         10.3590    -2.0370    -0.8820 hc         1 S0L       0.071450
     49 H19          9.2500    -0.9600    -1.8640 hc         1 S0L       0.071450
     50 H20          9.1420     0.6750     0.0470 hc         1 S0L       0.071450
     51 H21         10.2410    -0.4020     1.0390 hc         1 S0L       0.071450
     52 H6          -7.5330    -3.2270     0.5020 h5         1 S0L       0.062100
@<TRIPOS>BOND
     1     1     2 1   
     2     1    13 1   
     3     1    32 1   
     4     2     3 ar  
     5     2     7 ar  
     6     3     4 ar  
     7     3    33 1   
     8     4     5 ar  
     9     4    11 1   
    10     5     6 ar  
    11     5    34 1   
    12     6     7 ar  
    13     6    35 1   
    14     7    36 1   
    15     8     9 2   
    16     8    12 1   
    17     8    52 1   
    18     9    10 1   
    19    10    11 2   
    20    11    12 1   
    21    12    15 1   
    22    13    14 2   
    23    13    16 1   
    24    15    20 1   
    25    15    21 1   
    26    15    37 1   
    27    16    17 ar  
    28    16    18 ar  
    29    17    19 ar  
    30    17    38 1   
    31    18    23 ar  
    32    19    22 ar  
    33    19    24 1   
    34    20    21 1   
    35    20    39 1   
    36    20    40 1   
    37    21    41 1   
    38    21    42 1   
    39    22    23 ar  
    40    22    43 1   
    41    23    44 1   
    42    24    25 1   
    43    24    28 1   
    44    25    26 2   
    45    25    45 1   
    46    26    27 1   
    47    27    28 2   
    48    27    29 1   
    49    28    46 1   
    50    29    30 1   
    51    29    31 1   
    52    29    47 1   
    53    30    31 1   
    54    30    48 1   
    55    30    49 1   
    56    31    50 1   
    57    31    51 1   
@<TRIPOS>SUBSTRUCTURE
     1 S0L         1 TEMP              0 ****  ****    0 ROOT
