@<TRIPOS>MOLECULE
S0L
   52    57     1     0     0
SMALL
abcg2


@<TRIPOS>ATOM
      1 N01         -0.8010     1.4240     0.0780 ns         1 S0L      -0.128000
      2 C02         -2.1850     1.3560     0.2370 ca         1 S0L      -0.021000
      3 C03         -2.9040     0.1660     0.3050 ca         1 S0L      -0.095000
      4 C04         -4.2920     0.1960     0.4510 ca         1 S0L      -0.099500
      5 C05         -4.9630     1.4120     0.5370 ca         1 S0L      -0.125000
      6 C06         -4.2400     2.5940     0.4640 ca         1 S0L      -0.089000
      7 C07         -2.8670     2.5740     0.3120 ca         1 S0L      -0.151000
      8 C08         -6.3820    -2.7050     0.3060 cc         1 S0L       0.371400
      9 N09         -5.3550    -3.1730     0.9510 nd         1 S0L      -0.354000
     10 N10         -4.4730    -2.1590     1.0940 nd         1 S0L      -0.346000
     11 C11         -4.9850    -1.0910     0.5390 cc         1 S0L       0.437000
     12 N12         -6.2110    -1.3930     0.0270 na         1 S0L      -0.337000
     13 C13          0.1120     0.4330     0.1100 c          1 S0L       0.510600
     14 O14         -0.1240    -0.7500     0.2760 o          1 S0L      -0.565100
     15 C15         -7.0820    -0.5530    -0.7440 cx         1 S0L       0.010300
     16 C16          1.5210     0.9250    -0.0830 ca         1 S0L       0.306500
     17 C17          2.5610     0.0140    -0.0440 ca         1 S0L      -0.128000
     18 N18          1.6900     2.2290    -0.2690 nb         1 S0L      -0.687000
     19 C19          3.8540     0.4910    -0.2270 ca         1 S0L       0.056800
     20 C20         -8.5160    -0.9340    -0.9030 cx         1 S0L      -0.130400
     21 C21         -8.1460     0.2470    -0.0620 cx         1 S0L      -0.130400
     22 C22          4.0390     1.8530    -0.4300 ca         1 S0L      -0.170000
     23 C23          2.9250     2.6750    -0.4350 ca         1 S0L       0.360900
     24 N24          4.9450    -0.3800    -0.2010 na         1 S0L      -0.088300
     25 C25          4.9260    -1.7150    -0.4750 cc         1 S0L       0.419400
     26 N26          6.1100    -2.2400    -0.3860 nd         1 S0L      -0.656000
     27 C27          6.9580    -1.2170    -0.0280 cd         1 S0L       0.288300
     28 C28          6.2530    -0.0580     0.0890 cc         1 S0L      -0.214000
     29 C29          8.3990    -1.4500     0.1650 cx         1 S0L      -0.146000
     30 C30          9.3710    -1.1350    -0.9430 cx         1 S0L      -0.125400
     31 C31          9.3490    -0.3010     0.2980 cx         1 S0L      -0.125400
     32 H1          -0.4080     2.3490    -0.0530 hn         1 S0L       0.183000
     33 H2          -2.4040    -0.7850     0.2340 ha         1 S0L       0.167000
     34 H3          -6.0330     1.4530     0.6800 ha         1 S0L       0.118000
     35 H4          -4.7550     3.5430     0.5340 ha         1 S0L       0.115000
     36 H5          -2.3160     3.5050     0.2520 ha         1 S0L       0.116000
     37 H7          -6.5850    -0.1100    -1.5980 h1         1 S0L       0.106700
     38 H8           2.3590    -1.0310     0.1410 ha         1 S0L       0.162000
     39 H9          -8.9560    -0.7650    -1.8760 hc         1 S0L       0.085450
     40 H10         -8.8870    -1.8140    -0.3950 hc         1 S0L       0.085450
     41 H11         -8.2370     0.1400     1.0120 hc         1 S0L       0.085450
     42 H12         -8.3400     1.2430    -0.4380 hc         1 S0L       0.085450
     43 H13          5.0180     2.2790    -0.5980 ha         1 S0L       0.139000
     44 H14          3.0430     3.7410    -0.5890 h4         1 S0L       0.029100
     45 H15          4.0240    -2.2360    -0.7550 h5         1 S0L       0.066100
     46 H16          6.5530     0.9340     0.3810 h4         1 S0L       0.161000
     47 H17          8.6300    -2.3350     0.7480 hc         1 S0L       0.096700
     48 H18         10.1980    -1.8160    -1.0940 hc         1 S0L       0.071450
     49 H19          8.9690    -0.7020    -1.8500 hc         1 S0L       0.071450
     50 H20          8.9580     0.7060     0.2260 hc         1 S0L       0.071450
     51 H21         10.1620    -0.4050     1.0040 hc         1 S0L       0.071450
     52 H6          -7.2560    -3.2670     0.0180 h5         1 S0L       0.062100
@<TRIPOS>BOND
     1     1     2 1   
     2     1    13 1   
     3     1    32 1   
     4     2     3 ar  
     5     2     7 ar  
     6     3     4 ar  
     7     3    33 1   
     8     4     5 ar  
     9     4    11 1   
    10     5     6 ar  
    11     5    34 1   
    12     6     7 ar  
    13     6    35 1   
    14     7    36 1   
    15     8     9 2   
    16     8    12 1   
    17     8    52 1   
    18     9    10 1   
    19    10    11 2   
    20    11    12 1   
    21    12    15 1   
    22    13    14 2   
    23    13    16 1   
    24    15    20 1   
    25    15    21 1   
    26    15    37 1   
    27    16    17 ar  
    28    16    18 ar  
    29    17    19 ar  
    30    17    38 1   
    31    18    23 ar  
    32    19    22 ar  
    33    19    24 1   
    34    20    21 1   
    35    20    39 1   
    36    20    40 1   
    37    21    41 1   
    38    21    42 1   
    39    22    23 ar  
    40    22    43 1   
    41    23    44 1   
    42    24    25 1   
    43    24    28 1   
    44    25    26 2   
    45    25    45 1   
    46    26    27 1   
    47    27    28 2   
    48    27    29 1   
    49    28    46 1   
    50    29    30 1   
    51    29    31 1   
    52    29    47 1   
    53    30    31 1   
    54    30    48 1   
    55    30    49 1   
    56    31    50 1   
    57    31    51 1   
@<TRIPOS>SUBSTRUCTURE
     1 S0L         1 TEMP              0 ****  ****    0 ROOT
