@<TRIPOS>MOLECULE
S0P
   20    20     1     0     0
SMALL
No Charge or Current Charge


@<TRIPOS>ATOM
      1 N1          13.1220    22.4100     2.1720 ns         1 S0P      -0.167000
      2 C4          10.7620    23.1350     1.9550 ca         1 S0P      -0.157500
      3 C5           9.7890    24.1400     2.0980 ca         1 S0P      -0.043500
      4 C6          10.1470    25.4080     2.5920 ca         1 S0P      -0.043000
      5 C7          11.4880    25.6670     2.9310 ca         1 S0P      -0.043500
      6 C8          12.4590    24.6610     2.7860 ca         1 S0P      -0.157500
      7 C1          11.9470    20.3870     3.0660 c3         1 S0P      -0.178100
      8 C2          13.0950    21.0270     2.2810 c          1 S0P       0.613100
      9 C3          12.1020    23.3840     2.3160 ca         1 S0P       0.009000
     10 C9           9.1530    26.4350     2.7380 cg         1 S0P       0.324000
     11 N2           8.3420    27.2680     2.8470 n1         1 S0P      -0.450000
     12 O1          14.0150    20.3460     1.8440 o          1 S0P      -0.577100
     13 H1          13.9900    22.7770     1.8070 hn         1 S0P       0.158000
     14 H2          10.4660    22.1770     1.5390 ha         1 S0P       0.125500
     15 H3           8.7570    23.9330     1.8170 ha         1 S0P       0.128500
     16 H4          11.7810    26.6470     3.3060 ha         1 S0P       0.128500
     17 H5          13.4930    24.8730     3.0500 ha         1 S0P       0.125500
     18 H6          12.2550    19.4400     3.5240 hc         1 S0P       0.067367
     19 H7          11.5320    21.0860     3.8010 hc         1 S0P       0.067367
     20 H8          11.1250    20.1830     2.3720 hc         1 S0P       0.067367
@<TRIPOS>BOND
     1     1     8 1   
     2     1     9 1   
     3     1    13 1   
     4     2     3 ar  
     5     2     9 ar  
     6     2    14 1   
     7     3     4 ar  
     8     3    15 1   
     9     4     5 ar  
    10     4    10 1   
    11     5     6 ar  
    12     5    16 1   
    13     6     9 ar  
    14     6    17 1   
    15     7     8 1   
    16     7    18 1   
    17     7    19 1   
    18     7    20 1   
    19     8    12 2   
    20    10    11 3   
@<TRIPOS>SUBSTRUCTURE
     1 S0P         1 TEMP              0 ****  ****    0 ROOT
