@<TRIPOS>MOLECULE
S0P
   20    20     1     0     0
SMALL
abcg2


@<TRIPOS>ATOM
      1 N1          13.0990    22.4260     2.1150 ns         1 S0P      -0.167000
      2 C4          10.7540    23.1170     1.9920 ca         1 S0P      -0.157500
      3 C5           9.8000    24.1010     2.1720 ca         1 S0P      -0.043500
      4 C6          10.1750    25.3680     2.6140 ca         1 S0P      -0.043000
      5 C7          11.5190    25.6450     2.8690 ca         1 S0P      -0.043500
      6 C8          12.4650    24.6540     2.7070 ca         1 S0P      -0.157500
      7 C1          11.8760    20.4510     2.9660 c3         1 S0P      -0.178100
      8 C2          13.1070    21.0820     2.3780 c          1 S0P       0.613100
      9 C3          12.0940    23.3750     2.2830 ca         1 S0P       0.009000
     10 C9           9.1900    26.3820     2.7920 cg         1 S0P       0.324000
     11 N2           8.3920    27.2010     2.9430 n1         1 S0P      -0.450000
     12 O1          14.1130    20.4370     2.1470 o          1 S0P      -0.577100
     13 H1          14.0080    22.7950     1.8670 hn         1 S0P       0.158000
     14 H2          10.4430    22.1600     1.6010 ha         1 S0P       0.125500
     15 H3           8.7640    23.8860     1.9490 ha         1 S0P       0.128500
     16 H4          11.8200    26.6270     3.2040 ha         1 S0P       0.128500
     17 H5          13.5040    24.8700     2.9200 ha         1 S0P       0.125500
     18 H6          12.1720    19.5490     3.4980 hc         1 S0P       0.067367
     19 H7          11.3410    21.1070     3.6490 hc         1 S0P       0.067367
     20 H8          11.1870    20.1510     2.1750 hc         1 S0P       0.067367
@<TRIPOS>BOND
     1     1     8 1   
     2     1     9 1   
     3     1    13 1   
     4     2     3 ar  
     5     2     9 ar  
     6     2    14 1   
     7     3     4 ar  
     8     3    15 1   
     9     4     5 ar  
    10     4    10 1   
    11     5     6 ar  
    12     5    16 1   
    13     6     9 ar  
    14     6    17 1   
    15     7     8 1   
    16     7    18 1   
    17     7    19 1   
    18     7    20 1   
    19     8    12 2   
    20    10    11 3   
@<TRIPOS>SUBSTRUCTURE
     1 S0P         1 TEMP              0 ****  ****    0 ROOT
