@<TRIPOS>MOLECULE
S0R
   33    33     1     0     0
SMALL
abcg2


@<TRIPOS>ATOM
      1 CA         232.0490    -3.5040   420.7140 c3         1 S0R      -0.049300
      2 CB         231.6150    -3.3050   419.2550 c3         1 S0R      -0.065400
      3 CG         231.9330    -4.4070   418.2360 c3         1 S0R      -0.053700
      4 O1         232.9020    -6.0520   421.7330 o          1 S0R      -0.648100
      5 C5         230.3480    -8.2300   424.2640 ca         1 S0R      -0.130000
      6 C6         231.2250    -7.4140   423.5660 ca         1 S0R      -0.074500
      7 C2         229.3830    -6.4850   422.3360 ca         1 S0R      -0.074500
      8 C4         228.9860    -8.1820   423.9950 ca         1 S0R      -0.112000
      9 C          231.7420    -5.6730   421.8690 c          1 S0R       0.598700
     10 C1         230.7500    -6.5230   422.6060 ca         1 S0R      -0.124600
     11 C3         228.5070    -7.3110   423.0260 ca         1 S0R      -0.130000
     12 N          231.2660    -4.5210   421.3850 ns         1 S0R      -0.447900
     13 C7         231.8930    -2.1490   421.4590 c          1 S0R       0.712000
     14 O          230.8540    -1.9990   422.1320 o          1 S0R      -0.723500
     15 CD1        233.4270    -4.7020   418.1520 c3         1 S0R      -0.082100
     16 CD2        231.1360    -5.6960   418.4190 c3         1 S0R      -0.082100
     17 H1         233.0960    -3.8010   420.7510 h1         1 S0R       0.072700
     18 H2         232.1000    -2.3900   418.9030 hc         1 S0R       0.043700
     19 H3         230.5380    -3.1040   419.2390 hc         1 S0R       0.043700
     20 H4         231.6320    -3.9860   417.2690 hc         1 S0R       0.014700
     21 H5         230.7280    -8.9090   425.0170 ha         1 S0R       0.102000
     22 H6         232.2850    -7.4630   423.7750 ha         1 S0R       0.126000
     23 H7         228.9880    -5.8300   421.5690 ha         1 S0R       0.126000
     24 H8         228.3020    -8.8240   424.5350 ha         1 S0R       0.098000
     25 H9         227.4490    -7.2780   422.8000 ha         1 S0R       0.102000
     26 H10        230.3700    -4.1910   421.7130 hn         1 S0R       0.326500
     27 O2         232.8050    -1.3230   421.2780 o          1 S0R      -0.723500
     28 H12        234.0080    -3.7880   418.0140 hc         1 S0R       0.026367
     29 H13        233.7870    -5.1930   419.0580 hc         1 S0R       0.026367
     30 H14        233.6470    -5.3660   417.3140 hc         1 S0R       0.026367
     31 H15        230.0720    -5.4980   418.5680 hc         1 S0R       0.026367
     32 H16        231.2320    -6.3270   417.5330 hc         1 S0R       0.026367
     33 H17        231.4920    -6.2800   419.2660 hc         1 S0R       0.026367
@<TRIPOS>BOND
     1     1     2 1   
     2     1    12 1   
     3     1    13 1   
     4     1    17 1   
     5     2     3 1   
     6     2    18 1   
     7     2    19 1   
     8     3    15 1   
     9     3    16 1   
    10     3    20 1   
    11     4     9 2   
    12     5     6 ar  
    13     5     8 ar  
    14     5    21 1   
    15     6    10 ar  
    16     6    22 1   
    17     7    10 ar  
    18     7    11 ar  
    19     7    23 1   
    20     8    11 ar  
    21     8    24 1   
    22     9    10 1   
    23     9    12 1   
    24    11    25 1   
    25    12    26 1   
    26    13    14 1   
    27    13    27 1   
    28    15    28 1   
    29    15    29 1   
    30    15    30 1   
    31    16    31 1   
    32    16    32 1   
    33    16    33 1   
@<TRIPOS>SUBSTRUCTURE
     1 S0R         1 TEMP              0 ****  ****    0 ROOT
