@<TRIPOS>MOLECULE
S0R
   33    33     1     0     0
SMALL
No Charge or Current Charge


@<TRIPOS>ATOM
      1 CA         231.9910    -3.3830   420.6520 c3         1 S0R      -0.049300
      2 CB         231.5820    -3.2940   419.1520 c3         1 S0R      -0.065400
      3 CG         231.9620    -4.4870   418.2250 c3         1 S0R      -0.053700
      4 O1         232.9730    -5.7240   422.0380 o          1 S0R      -0.648100
      5 C5         230.3870    -8.4990   424.0050 ca         1 S0R      -0.130000
      6 C6         231.2700    -7.6000   423.3830 ca         1 S0R      -0.074500
      7 C2         229.3790    -6.2730   422.6200 ca         1 S0R      -0.074500
      8 C4         229.0030    -8.2890   423.9360 ca         1 S0R      -0.112000
      9 C          231.7650    -5.5230   422.0200 c          1 S0R       0.598700
     10 C1         230.7820    -6.4720   422.6820 ca         1 S0R      -0.124600
     11 C3         228.5010    -7.1770   423.2440 ca         1 S0R      -0.130000
     12 N          231.2260    -4.4180   421.3910 ns         1 S0R      -0.447900
     13 C7         231.8230    -2.0030   421.3580 c          1 S0R       0.712000
     14 O          230.6900    -1.5830   421.5570 o          1 S0R      -0.723500
     15 CD1        233.4810    -4.7700   418.1960 c3         1 S0R      -0.082100
     16 CD2        231.1460    -5.7750   418.4840 c3         1 S0R      -0.082100
     17 H1         233.0600    -3.6210   420.7040 h1         1 S0R       0.072700
     18 H2         232.0510    -2.3940   418.7350 hc         1 S0R       0.043700
     19 H3         230.5010    -3.1200   419.0860 hc         1 S0R       0.043700
     20 H4         231.6930    -4.1650   417.2110 hc         1 S0R       0.014700
     21 H5         230.7800    -9.3610   424.5400 ha         1 S0R       0.102000
     22 H6         232.3410    -7.7830   423.4480 ha         1 S0R       0.126000
     23 H7         228.9490    -5.4270   422.0890 ha         1 S0R       0.126000
     24 H8         228.3200    -8.9860   424.4170 ha         1 S0R       0.098000
     25 H9         227.4270    -7.0130   423.1880 ha         1 S0R       0.102000
     26 H10        230.2240    -4.3000   421.4610 hn         1 S0R       0.326500
     27 O2         232.8290    -1.4270   421.7470 o          1 S0R      -0.723500
     28 H12        234.0430    -3.8530   417.9810 hc         1 S0R       0.026367
     29 H13        233.8280    -5.1700   419.1560 hc         1 S0R       0.026367
     30 H14        233.7210    -5.5040   417.4180 hc         1 S0R       0.026367
     31 H15        230.0750    -5.5510   418.5660 hc         1 S0R       0.026367
     32 H16        231.2790    -6.4820   417.6560 hc         1 S0R       0.026367
     33 H17        231.4680    -6.2790   419.4010 hc         1 S0R       0.026367
@<TRIPOS>BOND
     1     1     2 1   
     2     1    12 1   
     3     1    13 1   
     4     1    17 1   
     5     2     3 1   
     6     2    18 1   
     7     2    19 1   
     8     3    15 1   
     9     3    16 1   
    10     3    20 1   
    11     4     9 2   
    12     5     6 ar  
    13     5     8 ar  
    14     5    21 1   
    15     6    10 ar  
    16     6    22 1   
    17     7    10 ar  
    18     7    11 ar  
    19     7    23 1   
    20     8    11 ar  
    21     8    24 1   
    22     9    10 1   
    23     9    12 1   
    24    11    25 1   
    25    12    26 1   
    26    13    14 1   
    27    13    27 1   
    28    15    28 1   
    29    15    29 1   
    30    15    30 1   
    31    16    31 1   
    32    16    32 1   
    33    16    33 1   
@<TRIPOS>SUBSTRUCTURE
     1 S0R         1 TEMP              0 ****  ****    0 ROOT
