@<TRIPOS>MOLECULE
S0S
   30    31     1     0     0
SMALL
abcg2


@<TRIPOS>ATOM
      1 N1          12.1100    22.4990    -3.2460 nb         1 S0S      -0.665000
      2 C4          11.9620    22.0030    -2.0250 ca         1 S0S       0.337900
      3 C5          12.9310    23.5340    -3.3980 ca         1 S0S       0.338900
      4 C7          10.9590    23.7570     1.3100 c5         1 S0S       0.203500
      5 C8           9.4750    24.0670     1.5070 c5         1 S0S      -0.313400
      6 C10         11.6530    24.2620     2.5800 c5         1 S0S       0.195300
      7 C1          13.6310    24.1050    -2.3480 ca         1 S0S      -0.165000
      8 C2          13.4660    23.5740    -1.0770 ca         1 S0S      -0.060000
      9 C3          12.6120    22.4930    -0.8950 ca         1 S0S      -0.183300
     10 C9          11.1580    25.7000     2.7860 c5         1 S0S      -0.348400
     11 N2          11.1180    22.3330     1.1040 n7         1 S0S      -0.862400
     12 O3          13.0420    24.2090     2.4330 oh         1 S0S      -0.644000
     13 S1           9.4040    25.6380     2.3960 s6         1 S0S       1.073000
     14 H1          11.2900    21.1540    -1.9310 h4         1 S0S       0.014100
     15 H2          13.0390    23.9240    -4.4040 h4         1 S0S       0.020100
     16 H3          12.2800    20.8040     0.3680 h1         1 S0S       0.067700
     17 H4          13.1930    22.0900     1.1220 h1         1 S0S       0.067700
     18 H5          11.3270    24.3600     0.4650 h1         1 S0S       0.055700
     19 H7           9.0040    23.3120     2.1380 h1         1 S0S       0.118200
     20 H8          11.3130    23.6400     3.4180 h1         1 S0S       0.058700
     21 H9          14.2870    24.9470    -2.5220 ha         1 S0S       0.126000
     22 H10         13.9970    23.9960    -0.2320 ha         1 S0S       0.130000
     23 H11         11.6380    26.3770     2.0780 h1         1 S0S       0.117200
     24 H12         11.2880    26.0760     3.8010 h1         1 S0S       0.117200
     25 H13         10.3320    21.9780     0.5730 hn         1 S0S       0.424000
     26 H15         13.4510    24.3000     3.2990 ho         1 S0S       0.456000
     27 C6          12.3510    21.8900     0.4620 c3         1 S0S       0.216100
     28 H6           8.9210    24.1600     0.5740 h1         1 S0S       0.118200
     29 O1           8.6250    25.4690     3.6220 o          1 S0S      -0.508000
     30 O2           9.0390    26.7220     1.4870 o          1 S0S      -0.508000
@<TRIPOS>BOND
     1     1     2 ar  
     2     1     3 ar  
     3     2     9 ar  
     4     2    14 1   
     5     3     7 ar  
     6     3    15 1   
     7     4     5 1   
     8     4     6 1   
     9     4    11 1   
    10     4    18 1   
    11     5    13 1   
    12     5    19 1   
    13     5    28 1   
    14     6    10 1   
    15     6    12 1   
    16     6    20 1   
    17     7     8 ar  
    18     7    21 1   
    19     8     9 ar  
    20     8    22 1   
    21     9    27 1   
    22    10    13 1   
    23    10    23 1   
    24    10    24 1   
    25    11    25 1   
    26    11    27 1   
    27    12    26 1   
    28    13    29 2   
    29    13    30 2   
    30    16    27 1   
    31    17    27 1   
@<TRIPOS>SUBSTRUCTURE
     1 S0S         1 TEMP              0 ****  ****    0 ROOT
