@<TRIPOS>MOLECULE
S0S
   30    31     1     0     0
SMALL
No Charge or Current Charge


@<TRIPOS>ATOM
      1 N1          12.2350    22.3750    -3.3480 nb         1 S0S      -0.665000
      2 C4          12.0200    21.8990    -2.0980 ca         1 S0S       0.337900
      3 C5          13.0320    23.4600    -3.4800 ca         1 S0S       0.338900
      4 C7          10.9250    23.8360     1.2730 c5         1 S0S       0.203500
      5 C8           9.4410    24.0270     1.6270 c5         1 S0S      -0.313400
      6 C10         11.6670    24.2270     2.6150 c5         1 S0S       0.195300
      7 C1          13.6380    24.1000    -2.3860 ca         1 S0S      -0.165000
      8 C2          13.4150    23.6030    -1.0920 ca         1 S0S      -0.060000
      9 C3          12.5820    22.4790    -0.9440 ca         1 S0S      -0.183300
     10 C9          11.1940    25.6750     2.8610 c5         1 S0S      -0.348400
     11 N2          11.0260    22.3810     0.9770 n7         1 S0S      -0.862400
     12 O3          13.0900    24.2270     2.5140 oh         1 S0S      -0.644000
     13 S1           9.3940    25.6720     2.4510 s6         1 S0S       1.073000
     14 H1          11.3760    21.0240    -2.0230 h4         1 S0S       0.014100
     15 H2          13.1900    23.8260    -4.4940 h4         1 S0S       0.020100
     16 H3          12.2700    20.7880     0.3300 h1         1 S0S       0.067700
     17 H4          13.1440    22.1050     1.0990 h1         1 S0S       0.067700
     18 H5          11.2280    24.4670     0.4240 h1         1 S0S       0.055700
     19 H7           9.0760    23.3050     2.3660 h1         1 S0S       0.118200
     20 H8          11.3430    23.5640     3.4320 h1         1 S0S       0.058700
     21 H9          14.2720    24.9670    -2.5470 ha         1 S0S       0.126000
     22 H10         13.8750    24.0800    -0.2280 ha         1 S0S       0.130000
     23 H11         11.6600    26.3980     2.1830 h1         1 S0S       0.117200
     24 H12         11.2940    26.0060     3.9000 h1         1 S0S       0.117200
     25 H13         10.2910    22.1360     0.3040 hn         1 S0S       0.424000
     26 H15         13.4340    24.4880     3.3960 ho         1 S0S       0.456000
     27 C6          12.3050    21.8830     0.4260 c3         1 S0S       0.216100
     28 H6           8.7720    24.0650     0.7620 h1         1 S0S       0.118200
     29 O1           8.5980    25.5880     3.6820 o          1 S0S      -0.508000
     30 O2           9.1130    26.7210     1.4640 o          1 S0S      -0.508000
@<TRIPOS>BOND
     1     1     2 ar  
     2     1     3 ar  
     3     2     9 ar  
     4     2    14 1   
     5     3     7 ar  
     6     3    15 1   
     7     4     5 1   
     8     4     6 1   
     9     4    11 1   
    10     4    18 1   
    11     5    13 1   
    12     5    19 1   
    13     5    28 1   
    14     6    10 1   
    15     6    12 1   
    16     6    20 1   
    17     7     8 ar  
    18     7    21 1   
    19     8     9 ar  
    20     8    22 1   
    21     9    27 1   
    22    10    13 1   
    23    10    23 1   
    24    10    24 1   
    25    11    25 1   
    26    11    27 1   
    27    12    26 1   
    28    13    29 2   
    29    13    30 2   
    30    16    27 1   
    31    17    27 1   
@<TRIPOS>SUBSTRUCTURE
     1 S0S         1 TEMP              0 ****  ****    0 ROOT
