@<TRIPOS>MOLECULE
S0T
   52    55     1     0     0
SMALL
abcg2


@<TRIPOS>ATOM
      1 C02        -43.7110   -29.8990     2.9220 c          1 S0T       0.718000
      2 C03        -44.3740   -29.5420     1.5670 c5         1 S0T      -0.198700
      3 C04        -43.6720   -30.3310     0.4260 c5         1 S0T      -0.015100
      4 C05        -44.5590   -31.5380     0.2450 ca         1 S0T      -0.151300
      5 C06        -44.2880   -32.7440    -0.3910 ca         1 S0T       0.134100
      6 C08        -45.2720   -33.7330    -0.4340 ca         1 S0T      -0.157000
      7 C09        -46.5150   -33.5070     0.1510 ca         1 S0T      -0.097000
      8 C10        -46.8000   -32.2980     0.7850 ca         1 S0T      -0.120000
      9 C11        -45.8090   -31.3290     0.8210 ca         1 S0T      -0.035300
     10 C12        -45.8670   -29.9350     1.4090 c5         1 S0T       0.164000
     11 C15        -48.5050   -29.2140     4.0370 ca         1 S0T      -0.154600
     12 C16        -49.8580   -28.8890     4.1250 ca         1 S0T      -0.043000
     13 C17        -50.5090   -28.7730     5.3430 ca         1 S0T      -0.168500
     14 C18        -49.7970   -28.9790     6.5310 ca         1 S0T      -0.011000
     15 C20        -51.6010   -28.4290     8.1710 c          1 S0T       0.670100
     16 C22        -52.9420   -28.1280    10.2630 ca         1 S0T       0.002000
     17 C23        -54.0660   -27.5000     9.7160 ca         1 S0T      -0.154500
     18 C24        -55.1380   -27.1710    10.5400 ca         1 S0T      -0.082500
     19 C25        -55.1160   -27.4540    11.9010 ca         1 S0T      -0.147000
     20 C26        -53.9950   -28.0780    12.4430 ca         1 S0T      -0.082500
     21 C27        -52.9200   -28.4130    11.6350 ca         1 S0T      -0.154500
     22 C29        -48.4340   -29.3030     6.4520 ca         1 S0T      -0.168500
     23 C30        -47.8020   -29.4190     5.2290 ca         1 S0T      -0.043000
     24 N13        -46.6380   -29.8140     2.6240 ns         1 S0T      -0.474900
     25 N19        -50.3540   -28.8980     7.8090 ns         1 S0T      -0.161000
     26 N21        -51.8040   -28.4940     9.5280 ns         1 S0T      -0.168000
     27 O01        -44.3230   -30.6590     3.7250 o          1 S0T      -0.728500
     28 O07        -43.0810   -33.0170    -0.9760 oh         1 S0T      -0.559100
     29 O28        -52.4250   -28.0030     7.3720 o          1 S0T      -0.607100
     30 O31        -48.4990   -28.9440     1.6690 o          1 S0T      -0.661100
     31 O32        -42.5760   -29.4020     3.1090 o          1 S0T      -0.728500
     32 H031       -44.2450   -28.4690     1.4260 hc         1 S0T       0.054700
     33 H042       -42.6400   -30.5760     0.6840 hc         1 S0T       0.043700
     34 H041       -43.6400   -29.7350    -0.4920 hc         1 S0T       0.043700
     35 H081       -45.0520   -34.6730    -0.9230 ha         1 S0T       0.109000
     36 H091       -47.2650   -34.2870     0.1110 ha         1 S0T       0.097000
     37 H101       -47.7650   -32.1240     1.2440 ha         1 S0T       0.117000
     38 H121       -46.3280   -29.2700     0.6750 h1         1 S0T       0.063700
     39 H161       -50.4120   -28.7270     3.2100 ha         1 S0T       0.143000
     40 H171       -51.5560   -28.5260     5.3800 ha         1 S0T       0.124000
     41 H231       -54.0960   -27.2720     8.6650 ha         1 S0T       0.130000
     42 H241       -56.0010   -26.6840    10.1040 ha         1 S0T       0.110000
     43 H251       -55.9570   -27.1930    12.5300 ha         1 S0T       0.110000
     44 H261       -53.9560   -28.3070    13.5010 ha         1 S0T       0.110000
     45 H271       -52.0510   -28.9000    12.0620 ha         1 S0T       0.130000
     46 H291       -47.8710   -29.4580     7.3650 ha         1 S0T       0.124000
     47 H301       -46.7460   -29.6530     5.2250 ha         1 S0T       0.143000
     48 H131       -46.1470   -30.1720     3.4370 hn         1 S0T       0.374500
     49 H191       -49.7340   -29.1760     8.5550 hn         1 S0T       0.143000
     50 H211       -51.0620   -28.8900    10.0860 hn         1 S0T       0.145000
     51 H071       -42.4840   -32.2650    -0.8680 ho         1 S0T       0.463000
     52 C14        -47.8830   -29.3120     2.6790 c          1 S0T       0.606700
@<TRIPOS>BOND
     1     1     2 1   
     2     1    27 1   
     3     1    31 1   
     4     2     3 1   
     5     2    10 1   
     6     2    32 1   
     7     3     4 1   
     8     3    33 1   
     9     3    34 1   
    10     4     5 ar  
    11     4     9 ar  
    12     5     6 ar  
    13     5    28 1   
    14     6     7 ar  
    15     6    35 1   
    16     7     8 ar  
    17     7    36 1   
    18     8     9 ar  
    19     8    37 1   
    20     9    10 1   
    21    10    24 1   
    22    10    38 1   
    23    11    12 ar  
    24    11    23 ar  
    25    11    52 1   
    26    12    13 ar  
    27    12    39 1   
    28    13    14 ar  
    29    13    40 1   
    30    14    22 ar  
    31    14    25 1   
    32    15    25 1   
    33    15    26 1   
    34    15    29 2   
    35    16    17 ar  
    36    16    21 ar  
    37    16    26 1   
    38    17    18 ar  
    39    17    41 1   
    40    18    19 ar  
    41    18    42 1   
    42    19    20 ar  
    43    19    43 1   
    44    20    21 ar  
    45    20    44 1   
    46    21    45 1   
    47    22    23 ar  
    48    22    46 1   
    49    23    47 1   
    50    24    48 1   
    51    24    52 1   
    52    25    49 1   
    53    26    50 1   
    54    28    51 1   
    55    30    52 2   
@<TRIPOS>SUBSTRUCTURE
     1 S0T         1 TEMP              0 ****  ****    0 ROOT
