@<TRIPOS>MOLECULE
S0T
   52    55     1     0     0
SMALL
No Charge or Current Charge


@<TRIPOS>ATOM
      1 C02        -44.4930   -29.3620     2.8020 c          1 S0T       0.718000
      2 C03        -44.9150   -29.4340     1.3050 c5         1 S0T      -0.198700
      3 C04        -43.7810   -30.1680     0.4800 c5         1 S0T      -0.015100
      4 C05        -44.3410   -31.5680     0.3670 ca         1 S0T      -0.151300
      5 C06        -43.6560   -32.7320    -0.0230 ca         1 S0T       0.134100
      6 C08        -44.3510   -33.9540    -0.0720 ca         1 S0T      -0.157000
      7 C09        -45.7200   -34.0060     0.2620 ca         1 S0T      -0.097000
      8 C10        -46.3950   -32.8310     0.6450 ca         1 S0T      -0.120000
      9 C11        -45.6840   -31.6200     0.6960 ca         1 S0T      -0.035300
     10 C12        -46.2470   -30.2690     1.0570 c5         1 S0T       0.164000
     11 C15        -48.6550   -29.1650     3.8160 ca         1 S0T      -0.154600
     12 C16        -49.6140   -28.1570     4.0600 ca         1 S0T      -0.043000
     13 C17        -50.3010   -28.0910     5.2840 ca         1 S0T      -0.168500
     14 C18        -50.0450   -29.0340     6.3010 ca         1 S0T      -0.011000
     15 C20        -51.6880   -28.2250     8.1090 c          1 S0T       0.670100
     16 C22        -52.9280   -28.1200    10.3610 ca         1 S0T       0.002000
     17 C23        -53.7770   -27.0140    10.1310 ca         1 S0T      -0.154500
     18 C24        -54.6680   -26.5820    11.1290 ca         1 S0T      -0.082500
     19 C25        -54.7210   -27.2470    12.3650 ca         1 S0T      -0.147000
     20 C26        -53.8820   -28.3460    12.6030 ca         1 S0T      -0.082500
     21 C27        -52.9910   -28.7780    11.6050 ca         1 S0T      -0.154500
     22 C29        -49.0890   -30.0360     6.0640 ca         1 S0T      -0.168500
     23 C30        -48.3990   -30.1070     4.8410 ca         1 S0T      -0.043000
     24 N13        -47.0360   -30.2270     2.2910 ns         1 S0T      -0.474900
     25 N19        -50.6980   -29.0320     7.5650 ns         1 S0T      -0.161000
     26 N21        -52.0010   -28.6180     9.4030 ns         1 S0T      -0.168000
     27 O01        -44.2670   -30.3870     3.4300 o          1 S0T      -0.728500
     28 O07        -42.3350   -32.6900    -0.3570 oh         1 S0T      -0.559100
     29 O28        -52.2190   -27.2890     7.5230 o          1 S0T      -0.607100
     30 O31        -48.1570   -28.3600     1.6120 o          1 S0T      -0.661100
     31 O32        -44.3740   -28.2600     3.3160 o          1 S0T      -0.728500
     32 H031       -45.0450   -28.4050     0.9530 hc         1 S0T       0.054700
     33 H042       -42.8060   -30.1270     0.9810 hc         1 S0T       0.043700
     34 H041       -43.6570   -29.7150    -0.5110 hc         1 S0T       0.043700
     35 H081       -43.8320   -34.8610    -0.3710 ha         1 S0T       0.109000
     36 H091       -46.2560   -34.9510     0.2190 ha         1 S0T       0.097000
     37 H101       -47.4530   -32.8610     0.8950 ha         1 S0T       0.117000
     38 H121       -46.7970   -29.8810     0.1880 h1         1 S0T       0.063700
     39 H161       -49.8340   -27.4150     3.2940 ha         1 S0T       0.143000
     40 H171       -51.0270   -27.2960     5.4190 ha         1 S0T       0.124000
     41 H231       -53.7650   -26.4750     9.1900 ha         1 S0T       0.130000
     42 H241       -55.3190   -25.7290    10.9440 ha         1 S0T       0.110000
     43 H251       -55.4110   -26.9100    13.1360 ha         1 S0T       0.110000
     44 H261       -53.9200   -28.8630    13.5600 ha         1 S0T       0.110000
     45 H271       -52.3460   -29.6310    11.8030 ha         1 S0T       0.130000
     46 H291       -48.8750   -30.7720     6.8350 ha         1 S0T       0.124000
     47 H301       -47.6690   -30.9020     4.7140 ha         1 S0T       0.143000
     48 H131       -46.8880   -30.8690     3.0560 hn         1 S0T       0.374500
     49 H191       -50.3740   -29.7630     8.1850 hn         1 S0T       0.143000
     50 H211       -51.4680   -29.4120     9.7330 hn         1 S0T       0.145000
     51 H071       -42.0320   -31.7620    -0.2710 ho         1 S0T       0.463000
     52 C14        -47.9380   -29.1990     2.4790 c          1 S0T       0.606700
@<TRIPOS>BOND
     1     1     2 1   
     2     1    27 1   
     3     1    31 1   
     4     2     3 1   
     5     2    10 1   
     6     2    32 1   
     7     3     4 1   
     8     3    33 1   
     9     3    34 1   
    10     4     5 ar  
    11     4     9 ar  
    12     5     6 ar  
    13     5    28 1   
    14     6     7 ar  
    15     6    35 1   
    16     7     8 ar  
    17     7    36 1   
    18     8     9 ar  
    19     8    37 1   
    20     9    10 1   
    21    10    24 1   
    22    10    38 1   
    23    11    12 ar  
    24    11    23 ar  
    25    11    52 1   
    26    12    13 ar  
    27    12    39 1   
    28    13    14 ar  
    29    13    40 1   
    30    14    22 ar  
    31    14    25 1   
    32    15    25 1   
    33    15    26 1   
    34    15    29 2   
    35    16    17 ar  
    36    16    21 ar  
    37    16    26 1   
    38    17    18 ar  
    39    17    41 1   
    40    18    19 ar  
    41    18    42 1   
    42    19    20 ar  
    43    19    43 1   
    44    20    21 ar  
    45    20    44 1   
    46    21    45 1   
    47    22    23 ar  
    48    22    46 1   
    49    23    47 1   
    50    24    48 1   
    51    24    52 1   
    52    25    49 1   
    53    26    50 1   
    54    28    51 1   
    55    30    52 2   
@<TRIPOS>SUBSTRUCTURE
     1 S0T         1 TEMP              0 ****  ****    0 ROOT
