@<TRIPOS>MOLECULE
S0U
   49    51     1     0     0
SMALL
abcg2


@<TRIPOS>ATOM
      1 C11         17.3560    19.6030    -0.5820 c          1 S0U       0.602100
      2 C14         17.3050    21.0230    -2.6390 ca         1 S0U      -0.022000
      3 C15         18.1830    20.2860    -3.4320 ca         1 S0U      -0.126000
      4 C16         18.4650    20.6910    -4.7410 ca         1 S0U       0.019000
      5 C17         17.8520    21.8400    -5.2500 ca         1 S0U      -0.126000
      6 C18         16.9820    22.5750    -4.4550 ca         1 S0U      -0.082000
      7 C01         16.2610    20.8940     1.4040 c3         1 S0U      -0.113100
      8 C02         16.8310    19.5640     0.8830 c3         1 S0U       0.171200
      9 C03         15.7210    18.5030     0.8980 c3         1 S0U      -0.113100
     10 C05         19.0700    19.7550     2.0310 ca         1 S0U       0.321000
     11 C06         19.5810    20.7890     1.2300 ca         1 S0U      -0.182000
     12 C07         20.7880    21.4010     1.5520 ca         1 S0U      -0.067500
     13 C08         21.5190    21.0100     2.6680 ca         1 S0U      -0.159000
     14 C09         21.0170    19.9850     3.4690 ca         1 S0U      -0.067500
     15 C10         19.8140    19.3690     3.1610 ca         1 S0U      -0.182000
     16 C19         16.7050    22.1760    -3.1560 ca         1 S0U      -0.168000
     17 C20         19.4050    19.9090    -5.5630 cc         1 S0U      -0.066000
     18 C21         20.1670    20.4270    -6.5840 cd         1 S0U      -0.252000
     19 C23         20.5570    18.0060    -6.2930 cd         1 S0U      -0.286900
     20 C24         19.6450    18.5100    -5.4030 cc         1 S0U      -0.095000
     21 C25         21.0390    16.6250    -6.4590 cf         1 S0U       0.695800
     22 N04         17.9030    19.0730     1.7400 nu         1 S0U      -0.953200
     23 N13         16.9950    20.6940    -1.3060 ns         1 S0U      -0.152000
     24 N26         20.6470    15.7390    -5.4910 nv         1 S0U      -1.076200
     25 N27         21.7420    16.3380    -7.5000 n2         1 S0U      -0.847100
     26 O12         18.0140    18.6750    -1.0310 o          1 S0U      -0.562100
     27 S22         21.1500    19.2480    -7.3430 ss         1 S0U       0.315000
     28 H151        18.6580    19.4120    -3.0190 ha         1 S0U       0.149000
     29 H171        18.0420    22.1500    -6.2690 ha         1 S0U       0.117000
     30 H181        16.5070    23.4630    -4.8520 ha         1 S0U       0.114000
     31 H012        15.9620    20.7510     2.4420 hc         1 S0U       0.051533
     32 H013        16.9930    21.7010     1.3700 hc         1 S0U       0.051533
     33 H011        15.3710    21.1980     0.8490 hc         1 S0U       0.051533
     34 H031        15.3340    18.3960     1.9140 hc         1 S0U       0.051533
     35 H033        14.9000    18.8040     0.2470 hc         1 S0U       0.051533
     36 H032        16.1090    17.5420     0.5620 hc         1 S0U       0.051533
     37 H061        19.0470    21.1280     0.3540 ha         1 S0U       0.109000
     38 H071        21.1550    22.1960     0.9150 ha         1 S0U       0.109000
     39 H081        22.4560    21.4920     2.9110 ha         1 S0U       0.113000
     40 H091        21.5640    19.6640     4.3470 ha         1 S0U       0.109000
     41 H101        19.4330    18.5750     3.7930 ha         1 S0U       0.109000
     42 H191        16.0240    22.7490    -2.5380 ha         1 S0U       0.108000
     43 H211        20.2140    21.4530    -6.9140 h4         1 S0U       0.150000
     44 H241        19.1280    17.9020    -4.6750 ha         1 S0U       0.140000
     45 H041        17.5820    18.4650     2.4770 hn         1 S0U       0.474000
     46 H131        16.4390    21.3850    -0.8300 hn         1 S0U       0.152000
     47 H262        20.3960    16.0930    -4.5820 hn         1 S0U       0.468500
     48 H271        22.0340    15.3620    -7.4880 hn         1 S0U       0.375400
     49 H261        21.0930    14.8350    -5.4850 hn         1 S0U       0.468500
@<TRIPOS>BOND
     1     1     8 1   
     2     1    23 1   
     3     1    26 2   
     4     2     3 ar  
     5     2    16 ar  
     6     2    23 1   
     7     3     4 ar  
     8     3    28 1   
     9     4     5 ar  
    10     4    17 1   
    11     5     6 ar  
    12     5    29 1   
    13     6    16 ar  
    14     6    30 1   
    15     7     8 1   
    16     7    31 1   
    17     7    32 1   
    18     7    33 1   
    19     8     9 1   
    20     8    22 1   
    21     9    34 1   
    22     9    35 1   
    23     9    36 1   
    24    10    11 ar  
    25    10    15 ar  
    26    10    22 1   
    27    11    12 ar  
    28    11    37 1   
    29    12    13 ar  
    30    12    38 1   
    31    13    14 ar  
    32    13    39 1   
    33    14    15 ar  
    34    14    40 1   
    35    15    41 1   
    36    16    42 1   
    37    17    18 2   
    38    17    20 1   
    39    18    27 1   
    40    18    43 1   
    41    19    20 2   
    42    19    21 1   
    43    19    27 1   
    44    20    44 1   
    45    21    24 1   
    46    21    25 2   
    47    22    45 1   
    48    23    46 1   
    49    24    47 1   
    50    24    49 1   
    51    25    48 1   
@<TRIPOS>SUBSTRUCTURE
     1 S0U         1 TEMP              0 ****  ****    0 ROOT
