@<TRIPOS>MOLECULE
S0U
   49    51     1     0     0
SMALL
No Charge or Current Charge


@<TRIPOS>ATOM
      1 C11         16.9360    19.6950    -0.4380 c          1 S0U       0.602100
      2 C14         17.1410    21.1550    -2.5430 ca         1 S0U      -0.022000
      3 C15         18.0580    20.3890    -3.2950 ca         1 S0U      -0.126000
      4 C16         18.3950    20.7330    -4.6260 ca         1 S0U       0.019000
      5 C17         17.7840    21.8820    -5.1850 ca         1 S0U      -0.126000
      6 C18         16.8820    22.6560    -4.4390 ca         1 S0U      -0.082000
      7 C01         15.8870    21.2010     1.4520 c3         1 S0U      -0.113100
      8 C02         16.4900    19.8130     1.0910 c3         1 S0U       0.171200
      9 C03         15.4280    18.7230     1.3800 c3         1 S0U      -0.113100
     10 C05         18.9790    19.6910     1.7530 ca         1 S0U       0.321000
     11 C06         19.4910    20.8000     1.0550 ca         1 S0U      -0.182000
     12 C07         20.8660    20.8900     0.7760 ca         1 S0U      -0.067500
     13 C08         21.7350    19.8710     1.2030 ca         1 S0U      -0.159000
     14 C09         21.2300    18.7680     1.9110 ca         1 S0U      -0.067500
     15 C10         19.8540    18.6830     2.1870 ca         1 S0U      -0.182000
     16 C19         16.5660    22.2960    -3.1230 ca         1 S0U      -0.168000
     17 C20         19.3590    19.9060    -5.3880 cc         1 S0U      -0.066000
     18 C21         19.7570    20.2820    -6.6520 cd         1 S0U      -0.252000
     19 C23         20.8640    18.1550    -5.8820 cd         1 S0U      -0.286900
     20 C24         19.9930    18.7020    -4.9640 cc         1 S0U      -0.095000
     21 C25         21.6470    16.9330    -5.7710 cf         1 S0U       0.695800
     22 N04         17.6170    19.5740     2.0420 nu         1 S0U      -0.953200
     23 N13         16.7900    20.8520    -1.2010 ns         1 S0U      -0.152000
     24 N26         21.7280    16.3770    -4.5750 nv         1 S0U      -1.076200
     25 N27         22.1970    16.3860    -6.7730 n2         1 S0U      -0.847100
     26 O12         17.3570    18.6400    -0.9110 o          1 S0U      -0.562100
     27 S22         20.9110    19.1360    -7.3540 ss         1 S0U       0.315000
     28 H151        18.5320    19.5320    -2.8360 ha         1 S0U       0.149000
     29 H171        17.9930    22.1950    -6.2020 ha         1 S0U       0.117000
     30 H181        16.4260    23.5380    -4.8850 ha         1 S0U       0.114000
     31 H012        15.5760    21.2280     2.5040 hc         1 S0U       0.051533
     32 H013        16.6120    22.0090     1.3030 hc         1 S0U       0.051533
     33 H011        15.0000    21.4160     0.8420 hc         1 S0U       0.051533
     34 H031        15.0750    18.7740     2.4170 hc         1 S0U       0.051533
     35 H033        14.5590    18.8470     0.7220 hc         1 S0U       0.051533
     36 H032        15.8370    17.7190     1.2110 hc         1 S0U       0.051533
     37 H061        18.8330    21.5990     0.7330 ha         1 S0U       0.109000
     38 H071        21.2580    21.7480     0.2340 ha         1 S0U       0.109000
     39 H081        22.7990    19.9390     0.9890 ha         1 S0U       0.113000
     40 H091        21.9030    17.9800     2.2450 ha         1 S0U       0.109000
     41 H101        19.4690    17.8250     2.7320 ha         1 S0U       0.109000
     42 H191        15.8660    22.9060    -2.5550 ha         1 S0U       0.108000
     43 H211        19.4710    21.1420    -7.2410 h4         1 S0U       0.150000
     44 H241        19.7930    18.2500    -3.9990 ha         1 S0U       0.140000
     45 H041        17.4250    18.8690     2.7540 hn         1 S0U       0.474000
     46 H131        16.3790    21.6300    -0.7020 hn         1 S0U       0.152000
     47 H262        21.4330    16.9330    -3.7820 hn         1 S0U       0.468500
     48 H271        22.5080    15.4510    -6.4880 hn         1 S0U       0.375400
     49 H261        22.4640    15.7070    -4.3910 hn         1 S0U       0.468500
@<TRIPOS>BOND
     1     1     8 1   
     2     1    23 1   
     3     1    26 2   
     4     2     3 ar  
     5     2    16 ar  
     6     2    23 1   
     7     3     4 ar  
     8     3    28 1   
     9     4     5 ar  
    10     4    17 1   
    11     5     6 ar  
    12     5    29 1   
    13     6    16 ar  
    14     6    30 1   
    15     7     8 1   
    16     7    31 1   
    17     7    32 1   
    18     7    33 1   
    19     8     9 1   
    20     8    22 1   
    21     9    34 1   
    22     9    35 1   
    23     9    36 1   
    24    10    11 ar  
    25    10    15 ar  
    26    10    22 1   
    27    11    12 ar  
    28    11    37 1   
    29    12    13 ar  
    30    12    38 1   
    31    13    14 ar  
    32    13    39 1   
    33    14    15 ar  
    34    14    40 1   
    35    15    41 1   
    36    16    42 1   
    37    17    18 2   
    38    17    20 1   
    39    18    27 1   
    40    18    43 1   
    41    19    20 2   
    42    19    21 1   
    43    19    27 1   
    44    20    44 1   
    45    21    24 1   
    46    21    25 2   
    47    22    45 1   
    48    23    46 1   
    49    24    47 1   
    50    24    49 1   
    51    25    48 1   
@<TRIPOS>SUBSTRUCTURE
     1 S0U         1 TEMP              0 ****  ****    0 ROOT
