@<TRIPOS>MOLECULE
S0V
   22    23     1     0     0
SMALL
No Charge or Current Charge


@<TRIPOS>ATOM
      1 N1           8.5040    25.1090     2.9330 nc         1 S0V      -0.257000
      2 N3           9.4010    21.5920     1.8560 n          1 S0V      -0.407800
      3 C4           8.9840    20.1610     1.9860 c6         1 S0V       0.061500
      4 C5           8.6710    19.5140     0.6150 c6         1 S0V       0.130600
      5 C6          10.1150    21.0680    -0.5190 c6         1 S0V       0.130600
      6 C7          10.4540    21.8000     0.8090 c6         1 S0V       0.061500
      7 C1          10.6090    24.2180     2.6550 cd         1 S0V      -0.262000
      8 C2           9.2530    23.9910     2.6280 cc         1 S0V       0.172500
      9 C3           8.6080    22.6440     2.3980 c          1 S0V       0.544600
     10 N2           9.2430    26.1740     3.1390 nd         1 S0V      -0.136100
     11 O1           7.4320    22.4300     2.6790 o          1 S0V      -0.563100
     12 O2           9.7980    19.6810    -0.2700 os         1 S0V      -0.442000
     13 S1          10.8850    25.8960     3.0120 ss         1 S0V       0.297100
     14 H1           8.1060    20.0640     2.6410 h1         1 S0V       0.065450
     15 H2           9.7980    19.5990     2.4650 h1         1 S0V       0.065450
     16 H3           7.7810    19.9820     0.1690 h1         1 S0V       0.057700
     17 H4           8.4680    18.4410     0.7420 h1         1 S0V       0.057700
     18 H5          10.9710    21.1250    -1.2070 h1         1 S0V       0.057700
     19 H6           9.2560    21.5530    -1.0040 h1         1 S0V       0.057700
     20 H7          11.4210    21.4410     1.1880 h1         1 S0V       0.065450
     21 H8          10.5610    22.8640     0.5630 h1         1 S0V       0.065450
     22 H9          11.4390    23.5350     2.5380 h4         1 S0V       0.176000
@<TRIPOS>BOND
     1     1     8 1   
     2     1    10 2   
     3     2     3 1   
     4     2     6 1   
     5     2     9 1   
     6     3     4 1   
     7     3    14 1   
     8     3    15 1   
     9     4    12 1   
    10     4    16 1   
    11     4    17 1   
    12     5     6 1   
    13     5    12 1   
    14     5    18 1   
    15     5    19 1   
    16     6    20 1   
    17     6    21 1   
    18     7     8 2   
    19     7    13 1   
    20     7    22 1   
    21     8     9 1   
    22     9    11 2   
    23    10    13 1   
@<TRIPOS>SUBSTRUCTURE
     1 S0V         1 TEMP              0 ****  ****    0 ROOT
