@<TRIPOS>MOLECULE
S0V
   22    23     1     0     0
SMALL
abcg2


@<TRIPOS>ATOM
      1 N1           8.5120    24.9040     2.3380 nc         1 S0V      -0.257000
      2 N3           9.4580    21.5210     1.8760 n          1 S0V      -0.407800
      3 C4           9.0180    20.1350     1.9350 c6         1 S0V       0.061500
      4 C5           8.6000    19.6650     0.5520 c6         1 S0V       0.130600
      5 C6          10.0320    21.1900    -0.4640 c6         1 S0V       0.130600
      6 C7          10.4980    21.7320     0.8800 c6         1 S0V       0.061500
      7 C1          10.6240    24.2410     2.8710 cd         1 S0V      -0.262000
      8 C2           9.3560    23.8570     2.5410 cc         1 S0V       0.172500
      9 C3           8.7830    22.4780     2.5360 c          1 S0V       0.544600
     10 N2           9.0450    26.0430     2.4700 nd         1 S0V      -0.136100
     11 O1           7.7550    22.2820     3.1670 o          1 S0V      -0.563100
     12 O2           9.6410    19.8400    -0.3830 os         1 S0V      -0.442000
     13 S1          10.6690    25.9230     2.8930 ss         1 S0V       0.297100
     14 H1           8.1920    20.0330     2.6340 h1         1 S0V       0.065450
     15 H2           9.8500    19.5260     2.3020 h1         1 S0V       0.065450
     16 H3           7.6990    20.2120     0.2390 h1         1 S0V       0.057700
     17 H4           8.3570    18.6020     0.5800 h1         1 S0V       0.057700
     18 H5          10.8480    21.2560    -1.1840 h1         1 S0V       0.057700
     19 H6           9.2040    21.8130    -0.8310 h1         1 S0V       0.057700
     20 H7          11.4100    21.2210     1.2020 h1         1 S0V       0.065450
     21 H8          10.7300    22.7870     0.7660 h1         1 S0V       0.065450
     22 H9          11.4780    23.6200     3.0950 h4         1 S0V       0.176000
@<TRIPOS>BOND
     1     1     8 1   
     2     1    10 2   
     3     2     3 1   
     4     2     6 1   
     5     2     9 1   
     6     3     4 1   
     7     3    14 1   
     8     3    15 1   
     9     4    12 1   
    10     4    16 1   
    11     4    17 1   
    12     5     6 1   
    13     5    12 1   
    14     5    18 1   
    15     5    19 1   
    16     6    20 1   
    17     6    21 1   
    18     7     8 2   
    19     7    13 1   
    20     7    22 1   
    21     8     9 1   
    22     9    11 2   
    23    10    13 1   
@<TRIPOS>SUBSTRUCTURE
     1 S0V         1 TEMP              0 ****  ****    0 ROOT
