@<TRIPOS>MOLECULE
S0W
   20    20     1     0     0
SMALL
bcc


@<TRIPOS>ATOM
      1 O1           4.5810     0.0580    -1.3380 o          1 S0W      -0.843300
      2 C2           3.9160     0.0340    -0.2810 c          1 S0W       0.928600
      3 O3           4.3700     0.0160     0.8790 o          1 S0W      -0.843300
      4 C4           2.3870     0.0280    -0.4570 c3         1 S0W      -0.204400
      5 C5           1.5750    -0.0300     0.8340 c3         1 S0W      -0.024100
      6 C6           0.0980    -0.0200     0.5550 ca         1 S0W      -0.038300
      7 C7          -0.6200    -1.2070     0.4280 ca         1 S0W      -0.128000
      8 C8          -1.9740    -1.2070     0.1220 ca         1 S0W      -0.127500
      9 C9          -2.6210     0.0040    -0.0640 ca         1 S0W       0.007400
     10 CL1         -4.3150     0.0190    -0.4470 cl         1 S0W      -0.156400
     11 C11         -1.9370     1.2030     0.0540 ca         1 S0W      -0.127500
     12 C12         -0.5850     1.1790     0.3630 ca         1 S0W      -0.128000
     13 H41C         2.1020     0.9200    -1.0260 hc         1 S0W       0.021200
     14 H42C         2.1150    -0.8150    -1.1010 hc         1 S0W       0.021200
     15 H51C         1.8370    -0.9290     1.3950 hc         1 S0W       0.053200
     16 H52C         1.8350     0.8190     1.4690 hc         1 S0W       0.053200
     17 H7          -0.1180    -2.1560     0.5770 ha         1 S0W       0.136500
     18 H12         -0.0540     2.1190     0.4590 ha         1 S0W       0.136500
     19 H8          -2.5130    -2.1400     0.0290 ha         1 S0W       0.131500
     20 H11         -2.4480     2.1460    -0.0900 ha         1 S0W       0.131500
@<TRIPOS>BOND
     1     1     2 1   
     2     2     3 1   
     3     2     4 1   
     4     4     5 1   
     5     4    13 1   
     6     4    14 1   
     7     5     6 1   
     8     5    15 1   
     9     5    16 1   
    10     6     7 ar  
    11     6    12 ar  
    12     7     8 ar  
    13     7    17 1   
    14     8     9 ar  
    15     8    19 1   
    16     9    10 1   
    17     9    11 ar  
    18    11    12 ar  
    19    11    20 1   
    20    12    18 1   
@<TRIPOS>SUBSTRUCTURE
     1 S0W         1 TEMP              0 ****  ****    0 ROOT
