@<TRIPOS>MOLECULE
S0W
   20    20     1     0     0
SMALL
No Charge or Current Charge


@<TRIPOS>ATOM
      1 O1           4.4890    -1.0110    -0.2530 o          1 S0W      -0.738000
      2 C2           3.9270     0.0730    -0.2270 c          1 S0W       0.718000
      3 O3           4.4800     1.1150     0.0930 o          1 S0W      -0.738000
      4 C4           2.4250     0.1190    -0.5490 c3         1 S0W      -0.204400
      5 C5           1.6000    -0.0940     0.7420 c3         1 S0W      -0.024100
      6 C6           0.1000    -0.0580     0.4810 ca         1 S0W      -0.038300
      7 C7          -0.5950    -1.2420     0.1620 ca         1 S0W      -0.110000
      8 C8          -1.9800    -1.2080    -0.0820 ca         1 S0W      -0.109500
      9 C9          -2.6750     0.0100    -0.0080 ca         1 S0W       0.099000
     10 Cl1         -4.4060     0.0520    -0.3130 cl         1 S0W      -0.248000
     11 C11         -1.9900     1.1940     0.3080 ca         1 S0W      -0.109500
     12 C12         -0.6050     1.1600     0.5510 ca         1 S0W      -0.110000
     13 H41C         2.1410     1.1100    -0.9250 hc         1 S0W       0.021200
     14 H42C         2.1490    -0.7040    -1.2200 hc         1 S0W       0.021200
     15 H51C         1.8790    -1.0550     1.1940 hc         1 S0W       0.053200
     16 H52C         1.8720     0.6760     1.4760 hc         1 S0W       0.053200
     17 H7          -0.0610    -2.1880     0.1010 ha         1 S0W       0.118500
     18 H12         -0.0790     2.0810     0.7930 ha         1 S0W       0.118500
     19 H8          -2.5120    -2.1240    -0.3280 ha         1 S0W       0.113500
     20 H11         -2.5290     2.1360     0.3630 ha         1 S0W       0.113500
@<TRIPOS>BOND
     1     1     2 1   
     2     2     3 1   
     3     2     4 1   
     4     4     5 1   
     5     4    13 1   
     6     4    14 1   
     7     5     6 1   
     8     5    15 1   
     9     5    16 1   
    10     6     7 ar  
    11     6    12 ar  
    12     7     8 ar  
    13     7    17 1   
    14     8     9 ar  
    15     8    19 1   
    16     9    10 1   
    17     9    11 ar  
    18    11    12 ar  
    19    11    20 1   
    20    12    18 1   
@<TRIPOS>SUBSTRUCTURE
     1 S0W         1 TEMP              0 ****  ****    0 ROOT
