@<TRIPOS>MOLECULE
S0X
   61    66     1     0     0
SMALL
abcg2


@<TRIPOS>ATOM
      1 N1         -19.8730     8.1070    30.0220 ns         1 S0X      -0.488900
      2 N3         -16.5050     3.9730    26.7590 nb         1 S0X      -0.656000
      3 C4         -22.8160     6.0090    31.7070 c6         1 S0X       0.224100
      4 C5         -22.2230     8.1060    30.6170 c3         1 S0X       0.088800
      5 C6         -20.9910     8.8380    30.0880 c          1 S0X       0.586100
      6 C7         -18.5750     8.6300    29.6320 c3         1 S0X       0.132000
      7 C8         -17.7030     8.9640    30.8170 cx         1 S0X      -0.147700
      8 C10        -16.2100     8.9140    30.6580 cx         1 S0X      -0.129900
      9 C13        -22.2130     3.9210    28.0030 c5         1 S0X      -0.088400
     10 C15        -20.2470     4.7800    29.0940 c          1 S0X       0.575000
     11 C17        -17.7620     3.8460    27.2540 ca         1 S0X       0.341900
     12 C20        -16.6420     7.4590    25.5410 ca         1 S0X      -0.081000
     13 C21        -17.5200     8.5100    25.4750 ca         1 S0X      -0.110000
     14 C22        -18.8300     8.3740    25.9840 ca         1 S0X      -0.085000
     15 C24        -18.3670     6.0970    26.6310 ca         1 S0X      -0.011000
     16 C26        -21.7910     2.4920    30.6630 ca         1 S0X      -0.093000
     17 O1         -19.4190     5.0520    29.9540 o          1 S0X      -0.524000
     18 N2         -19.9850     4.6260    27.7740 n          1 S0X      -0.253400
     19 C16        -18.6990     4.8460    27.2140 ca         1 S0X      -0.083000
     20 C23        -19.2490     7.1970    26.5500 ca         1 S0X      -0.105000
     21 C19        -17.0470     6.2320    26.1170 ca         1 S0X      -0.098000
     22 C18        -16.1740     5.1220    26.2160 ca         1 S0X       0.366900
     23 C14        -21.1640     4.3190    26.9580 c5         1 S0X       0.106000
     24 C12        -21.7650     4.6180    29.3040 c5         1 S0X      -0.082700
     25 C25        -22.0600     3.8610    30.5850 ca         1 S0X      -0.039300
     26 C3         -22.5570     4.5240    31.7120 ca         1 S0X      -0.059300
     27 C2         -22.8150     3.7980    32.8750 ca         1 S0X      -0.100000
     28 C1         -22.5730     2.4360    32.9490 ca         1 S0X      -0.091000
     29 C          -22.0490     1.7990    31.8320 ca         1 S0X       0.125000
     30 CL         -21.7010     0.0820    31.9050 cl         1 S0X      -0.209000
     31 C11        -22.3790     6.0310    29.3680 c6         1 S0X       0.182800
     32 N          -22.0820     6.6640    30.6380 n3         1 S0X      -0.741600
     33 O          -21.0660    10.0330    29.7840 o          1 S0X      -0.632100
     34 C9         -16.9180     7.8670    31.4810 cx         1 S0X      -0.129900
     35 H1         -19.9410     7.1400    30.3190 hn         1 S0X       0.354500
     36 H2         -22.5040     6.4320    32.6630 h1         1 S0X       0.048200
     37 H3         -23.9020     6.1860    31.6140 h1         1 S0X       0.048200
     38 H4         -22.3690     8.4630    31.6390 h1         1 S0X       0.063700
     39 H5         -23.0880     8.4490    30.0350 h1         1 S0X       0.063700
     40 H6         -18.0780     7.8810    29.0140 h1         1 S0X       0.057700
     41 H7         -18.7420     9.5120    29.0140 h1         1 S0X       0.057700
     42 H8         -18.0980     9.7380    31.4650 hc         1 S0X       0.084700
     43 H9         -15.8200     8.6170    29.6920 hc         1 S0X       0.072450
     44 H10        -15.6170     9.6570    31.1750 hc         1 S0X       0.072450
     45 H11        -23.2170     4.2230    27.7090 hc         1 S0X       0.065200
     46 H12        -22.2110     2.8400    28.1250 hc         1 S0X       0.065200
     47 H14        -15.6330     7.5500    25.1590 ha         1 S0X       0.120000
     48 H15        -17.2120     9.4510    25.0370 ha         1 S0X       0.121000
     49 H16        -19.5090     9.2160    25.9350 ha         1 S0X       0.123000
     50 H17        -21.3730     1.9650    29.8170 ha         1 S0X       0.129000
     51 H18        -20.2470     7.1150    26.9530 ha         1 S0X       0.120000
     52 H19        -15.1640     5.2150    25.8260 h4         1 S0X       0.023100
     53 H20        -21.4640     5.1950    26.3780 h1         1 S0X       0.053700
     54 H21        -20.9340     3.5110    26.2650 h1         1 S0X       0.053700
     55 H22        -23.2030     4.3140    33.7460 ha         1 S0X       0.119000
     56 H23        -22.7710     1.8820    33.8570 ha         1 S0X       0.133000
     57 H24        -21.9890     6.6440    28.5560 h1         1 S0X       0.044700
     58 H25        -23.4660     5.9420    29.2120 h1         1 S0X       0.044700
     59 H27        -16.8010     7.8970    32.5560 hc         1 S0X       0.072450
     60 H28        -17.0030     6.8720    31.0620 hc         1 S0X       0.072450
     61 H13        -18.0170     2.8930    27.7030 h4         1 S0X       0.029100
@<TRIPOS>BOND
     1     1     5 1   
     2     1     6 1   
     3     1    35 1   
     4     2    11 ar  
     5     2    22 ar  
     6     3    26 1   
     7     3    32 1   
     8     3    36 1   
     9     3    37 1   
    10     4     5 1   
    11     4    32 1   
    12     4    38 1   
    13     4    39 1   
    14     5    33 2   
    15     6     7 1   
    16     6    40 1   
    17     6    41 1   
    18     7     8 1   
    19     7    34 1   
    20     7    42 1   
    21     8    34 1   
    22     8    43 1   
    23     8    44 1   
    24     9    23 1   
    25     9    24 1   
    26     9    45 1   
    27     9    46 1   
    28    10    17 2   
    29    10    18 1   
    30    10    24 1   
    31    11    19 ar  
    32    11    61 1   
    33    12    13 ar  
    34    12    21 ar  
    35    12    47 1   
    36    13    14 ar  
    37    13    48 1   
    38    14    20 ar  
    39    14    49 1   
    40    15    19 ar  
    41    15    20 ar  
    42    15    21 ar  
    43    16    25 ar  
    44    16    29 ar  
    45    16    50 1   
    46    18    19 1   
    47    18    23 1   
    48    20    51 1   
    49    21    22 ar  
    50    22    52 1   
    51    23    53 1   
    52    23    54 1   
    53    24    25 1   
    54    24    31 1   
    55    25    26 ar  
    56    26    27 ar  
    57    27    28 ar  
    58    27    55 1   
    59    28    29 ar  
    60    28    56 1   
    61    29    30 1   
    62    31    32 1   
    63    31    57 1   
    64    31    58 1   
    65    34    59 1   
    66    34    60 1   
@<TRIPOS>SUBSTRUCTURE
     1 S0X         1 TEMP              0 ****  ****    0 ROOT
