@<TRIPOS>MOLECULE
S0X
   61    66     1     0     0
SMALL
No Charge or Current Charge


@<TRIPOS>ATOM
      1 N1         -20.1200     8.6220    30.3810 ns         1 S0X      -0.488900
      2 N3         -16.2140     4.1260    27.5830 nb         1 S0X      -0.656000
      3 C4         -23.0170     5.8040    31.8930 c6         1 S0X       0.224100
      4 C5         -22.4070     8.0840    31.1190 c3         1 S0X       0.088800
      5 C6         -21.4350     9.0230    30.3510 c          1 S0X       0.586100
      6 C7         -19.0280     9.2760    29.6680 c3         1 S0X       0.132000
      7 C8         -17.6890     8.9040    30.2860 cx         1 S0X      -0.147700
      8 C10        -16.4600     8.7360    29.4200 cx         1 S0X      -0.129900
      9 C13        -22.0420     4.0310    28.1150 c5         1 S0X      -0.088400
     10 C15        -20.1300     4.7540    29.4010 c          1 S0X       0.575000
     11 C17        -17.5170     4.0640    27.9390 ca         1 S0X       0.341900
     12 C20        -16.2200     7.2810    25.6610 ca         1 S0X      -0.081000
     13 C21        -17.0860     8.3260    25.3040 ca         1 S0X      -0.110000
     14 C22        -18.4320     8.2840    25.6970 ca         1 S0X      -0.085000
     15 C24        -18.0690     6.1150    26.7710 ca         1 S0X      -0.011000
     16 C26        -21.8200     2.3630    30.6550 ca         1 S0X      -0.093000
     17 O1         -19.2950     4.6960    30.2970 o          1 S0X      -0.524000
     18 N2         -19.8430     4.8640    28.0300 n          1 S0X      -0.253400
     19 C16        -18.5050     4.9790    27.5020 ca         1 S0X      -0.083000
     20 C23        -18.9220     7.1890    26.4290 ca         1 S0X      -0.105000
     21 C19        -16.7060     6.1860    26.4020 ca         1 S0X      -0.098000
     22 C18        -15.8280     5.1650    26.8110 ca         1 S0X       0.366900
     23 C14        -21.0300     4.7240    27.1550 c5         1 S0X       0.106000
     24 C12        -21.6610     4.6760    29.4960 c5         1 S0X      -0.082700
     25 C25        -22.1140     3.7490    30.6510 ca         1 S0X      -0.039300
     26 C3         -22.7610     4.2980    31.7870 ca         1 S0X      -0.059300
     27 C2         -23.1620     3.4670    32.8520 ca         1 S0X      -0.100000
     28 C1         -22.9010     2.0890    32.8160 ca         1 S0X      -0.091000
     29 C          -22.2200     1.5430    31.7210 ca         1 S0X       0.125000
     30 Cl         -21.8500    -0.1770    31.6880 cl         1 S0X      -0.209000
     31 C11        -22.2570     6.1090    29.6130 c6         1 S0X       0.182800
     32 N          -22.1480     6.6110    31.0010 n3         1 S0X      -0.741600
     33 O          -21.8000    10.0230    29.7430 o          1 S0X      -0.632100
     34 C9         -17.0860     7.5330    30.0850 cx         1 S0X      -0.129900
     35 H1         -19.9390     7.7540    30.8740 hn         1 S0X       0.354500
     36 H2         -22.8630     6.1120    32.9370 h1         1 S0X       0.048200
     37 H3         -24.0760     5.9880    31.6610 h1         1 S0X       0.048200
     38 H4         -22.3370     8.3820    32.1740 h1         1 S0X       0.063700
     39 H5         -23.4240     8.3220    30.7810 h1         1 S0X       0.063700
     40 H6         -19.0600     8.9660    28.6160 h1         1 S0X       0.057700
     41 H7         -19.1610    10.3660    29.7110 h1         1 S0X       0.057700
     42 H8         -17.5440     9.3570    31.2650 hc         1 S0X       0.084700
     43 H9         -16.5740     8.8310    28.3430 hc         1 S0X       0.072450
     44 H10        -15.5110     9.0950    29.8110 hc         1 S0X       0.072450
     45 H11        -23.0850     4.2080    27.8270 hc         1 S0X       0.065200
     46 H12        -21.8870     2.9500    28.0730 hc         1 S0X       0.065200
     47 H14        -15.1720     7.3290    25.3740 ha         1 S0X       0.120000
     48 H15        -16.7100     9.1760    24.7380 ha         1 S0X       0.121000
     49 H16        -19.0980     9.1050    25.4380 ha         1 S0X       0.123000
     50 H17        -21.2620     1.9070    29.8430 ha         1 S0X       0.129000
     51 H18        -19.9600     7.2060    26.7380 ha         1 S0X       0.120000
     52 H19        -14.7730     5.1970    26.5430 h4         1 S0X       0.023100
     53 H20        -21.4140     5.6960    26.8240 h1         1 S0X       0.053700
     54 H21        -20.8190     4.1140    26.2670 h1         1 S0X       0.053700
     55 H22        -23.6680     3.8930    33.7160 ha         1 S0X       0.119000
     56 H23        -23.2070     1.4510    33.6410 ha         1 S0X       0.133000
     57 H24        -21.7350     6.7770    28.9130 h1         1 S0X       0.044700
     58 H25        -23.3140     6.0940    29.3060 h1         1 S0X       0.044700
     59 H27        -16.5580     7.0830    30.9220 hc         1 S0X       0.072450
     60 H28        -17.6240     6.8290    29.4580 hc         1 S0X       0.072450
     61 H13        -17.7920     3.2190    28.5690 h4         1 S0X       0.029100
@<TRIPOS>BOND
     1     1     5 1   
     2     1     6 1   
     3     1    35 1   
     4     2    11 ar  
     5     2    22 ar  
     6     3    26 1   
     7     3    32 1   
     8     3    36 1   
     9     3    37 1   
    10     4     5 1   
    11     4    32 1   
    12     4    38 1   
    13     4    39 1   
    14     5    33 2   
    15     6     7 1   
    16     6    40 1   
    17     6    41 1   
    18     7     8 1   
    19     7    34 1   
    20     7    42 1   
    21     8    34 1   
    22     8    43 1   
    23     8    44 1   
    24     9    23 1   
    25     9    24 1   
    26     9    45 1   
    27     9    46 1   
    28    10    17 2   
    29    10    18 1   
    30    10    24 1   
    31    11    19 ar  
    32    11    61 1   
    33    12    13 ar  
    34    12    21 ar  
    35    12    47 1   
    36    13    14 ar  
    37    13    48 1   
    38    14    20 ar  
    39    14    49 1   
    40    15    19 ar  
    41    15    20 ar  
    42    15    21 ar  
    43    16    25 ar  
    44    16    29 ar  
    45    16    50 1   
    46    18    19 1   
    47    18    23 1   
    48    20    51 1   
    49    21    22 ar  
    50    22    52 1   
    51    23    53 1   
    52    23    54 1   
    53    24    25 1   
    54    24    31 1   
    55    25    26 ar  
    56    26    27 ar  
    57    27    28 ar  
    58    27    55 1   
    59    28    29 ar  
    60    28    56 1   
    61    29    30 1   
    62    31    32 1   
    63    31    57 1   
    64    31    58 1   
    65    34    59 1   
    66    34    60 1   
@<TRIPOS>SUBSTRUCTURE
     1 S0X         1 TEMP              0 ****  ****    0 ROOT
