@<TRIPOS>MOLECULE
S0Y
   25    26     1     0     0
SMALL
abcg2


@<TRIPOS>ATOM
      1 C10          1.3650     7.1190   -12.1960 cc         1 S0Y       0.021600
      2 C15          2.1570     8.2050   -12.6990 ca         1 S0Y      -0.106800
      3 C01          2.9930    10.9130   -15.2100 c3         1 S0Y      -0.033800
      4 C02          3.0360    10.0050   -14.0160 ca         1 S0Y      -0.130300
      5 C03          4.0780    10.1430   -13.0770 ca         1 S0Y      -0.098000
      6 C04          4.1790     9.3450   -11.9510 ca         1 S0Y      -0.128000
      7 C05          3.1990     8.3780   -11.7910 ca         1 S0Y       0.068100
      8 O06          3.0970     7.4900   -10.7820 os         1 S0Y      -0.181200
      9 C07          1.9830     6.7370   -11.0480 cd         1 S0Y       0.092400
     10 C08          1.6640     5.7180   -10.1300 ch         1 S0Y      -0.085300
     11 C09          1.3740     4.8480    -9.3490 c1         1 S0Y      -0.268000
     12 C11          0.1440     6.5630   -12.8270 c3         1 S0Y      -0.179200
     13 C12         -1.0320     7.5820   -12.8250 c          1 S0Y       0.726000
     14 O13         -1.6730     7.6920   -13.8860 o          1 S0Y      -0.720500
     15 O14         -1.2310     8.1780   -11.7520 o          1 S0Y      -0.720500
     16 C16          2.0720     9.0300   -13.8230 ca         1 S0Y      -0.021000
     17 H1           2.9710    11.9620   -14.9100 hc         1 S0Y       0.031033
     18 H2           3.8700    10.7810   -15.8460 hc         1 S0Y       0.031033
     19 H3           2.1100    10.7270   -15.8220 hc         1 S0Y       0.031033
     20 H4           4.8240    10.9120   -13.2380 ha         1 S0Y       0.093000
     21 H5           4.9850     9.4720   -11.2400 ha         1 S0Y       0.113000
     22 H6           1.1150     4.0800    -8.6560 ha         1 S0Y       0.245000
     23 H7          -0.1750     5.6740   -12.2750 hc         1 S0Y       0.038700
     24 H8           0.3690     6.2340   -13.8430 hc         1 S0Y       0.038700
     25 H10          1.2580     8.9090   -14.5290 ha         1 S0Y       0.142000
@<TRIPOS>BOND
     1     1     2 1   
     2     1     9 2   
     3     1    12 1   
     4     2     7 ar  
     5     2    16 ar  
     6     3     4 1   
     7     3    17 1   
     8     3    18 1   
     9     3    19 1   
    10     4     5 ar  
    11     4    16 ar  
    12     5     6 ar  
    13     5    20 1   
    14     6     7 ar  
    15     6    21 1   
    16     7     8 1   
    17     8     9 1   
    18     9    10 1   
    19    10    11 3   
    20    11    22 1   
    21    12    13 1   
    22    12    23 1   
    23    12    24 1   
    24    13    14 1   
    25    13    15 1   
    26    16    25 1   
@<TRIPOS>SUBSTRUCTURE
     1 S0Y         1 TEMP              0 ****  ****    0 ROOT
