@<TRIPOS>MOLECULE
S0Y
   25    26     1     0     0
SMALL
No Charge or Current Charge


@<TRIPOS>ATOM
      1 C10          1.3580     7.1420   -12.2350 cc         1 S0Y       0.021600
      2 C15          2.2010     8.2290   -12.7080 ca         1 S0Y      -0.106800
      3 C01          3.0560    10.8800   -15.3190 c3         1 S0Y      -0.033800
      4 C02          3.1000    10.0140   -14.0690 ca         1 S0Y      -0.130300
      5 C03          4.1230    10.2130   -13.1050 ca         1 S0Y      -0.098000
      6 C04          4.1780     9.4190   -11.9400 ca         1 S0Y      -0.128000
      7 C05          3.1950     8.4380   -11.7820 ca         1 S0Y       0.068100
      8 O06          3.0430     7.5640   -10.7550 os         1 S0Y      -0.181200
      9 C07          1.9430     6.7870   -11.0210 cd         1 S0Y       0.092400
     10 C08          1.5740     5.7830   -10.0860 ch         1 S0Y      -0.085300
     11 C09          1.2580     4.9130    -9.2980 c1         1 S0Y      -0.268000
     12 C11          0.1470     6.5580   -12.9190 c3         1 S0Y      -0.179200
     13 C12         -1.1180     7.3620   -12.5960 c          1 S0Y       0.726000
     14 O13         -1.3800     8.3260   -13.2990 o          1 S0Y      -0.720500
     15 O14         -1.7350     7.0780   -11.5800 o          1 S0Y      -0.720500
     16 C16          2.1230     9.0080   -13.8720 ca         1 S0Y      -0.021000
     17 H1           3.4480    11.8850   -15.1230 hc         1 S0Y       0.031033
     18 H2           3.6580    10.4360   -16.1220 hc         1 S0Y       0.031033
     19 H3           2.0310    10.9940   -15.6920 hc         1 S0Y       0.031033
     20 H4           4.8730    10.9850   -13.2600 ha         1 S0Y       0.093000
     21 H5           4.9540     9.5620   -11.1920 ha         1 S0Y       0.113000
     22 H6           0.9770     4.1470    -8.6040 ha         1 S0Y       0.245000
     23 H7           0.0410     5.5340   -12.5450 hc         1 S0Y       0.038700
     24 H8           0.3500     6.5990   -13.9950 hc         1 S0Y       0.038700
     25 H10          1.3320     8.8420   -14.6010 ha         1 S0Y       0.142000
@<TRIPOS>BOND
     1     1     2 1   
     2     1     9 2   
     3     1    12 1   
     4     2     7 ar  
     5     2    16 ar  
     6     3     4 1   
     7     3    17 1   
     8     3    18 1   
     9     3    19 1   
    10     4     5 ar  
    11     4    16 ar  
    12     5     6 ar  
    13     5    20 1   
    14     6     7 ar  
    15     6    21 1   
    16     7     8 1   
    17     8     9 1   
    18     9    10 1   
    19    10    11 3   
    20    11    22 1   
    21    12    13 1   
    22    12    23 1   
    23    12    24 1   
    24    13    14 1   
    25    13    15 1   
    26    16    25 1   
@<TRIPOS>SUBSTRUCTURE
     1 S0Y         1 TEMP              0 ****  ****    0 ROOT
