@<TRIPOS>MOLECULE
S10
   33    32     1     0     0
SMALL
No Charge or Current Charge


@<TRIPOS>ATOM
      1 O15          3.0090    -0.2000     1.4910 o          1 S10      -0.544000
      2 C10          3.1680    -0.2350     0.2810 c          1 S10       0.640600
      3 O11          4.1520     0.4000    -0.4140 os         1 S10      -0.468600
      4 C12          5.0880     1.1960     0.3310 c3         1 S10       0.186100
      5 C13          6.0830     1.8000    -0.6720 c3         1 S10      -0.099600
      6 N9           2.3930    -0.9380    -0.5970 ns         1 S10      -0.502400
      7 C8           1.2230    -1.7350    -0.2270 c3         1 S10       0.117000
      8 C7          -0.0120    -0.8580     0.0560 c3         1 S10      -0.114400
      9 C6          -1.2540    -1.6890     0.4320 c3         1 S10       0.117000
     10 N5          -2.4170    -0.8460     0.7110 ns         1 S10      -0.502400
     11 C4          -3.1870    -0.2380    -0.2400 c          1 S10       0.640600
     12 O14         -3.0270    -0.3370    -1.4460 o          1 S10      -0.544000
     13 O3          -4.1650     0.4780     0.3800 os         1 S10      -0.468600
     14 C2          -5.0940     1.1940    -0.4500 c3         1 S10       0.186100
     15 C1          -6.0840     1.9130     0.4800 c3         1 S10      -0.099600
     16 H121         5.6310     0.5810     1.0610 h1         1 S10       0.049200
     17 H122         4.5740     2.0040     0.8690 h1         1 S10       0.049200
     18 H131         5.5610     2.4300    -1.4020 hc         1 S10       0.046867
     19 H132         6.8210     2.4180    -0.1490 hc         1 S10       0.046867
     20 H133         6.6170     1.0080    -1.2100 hc         1 S10       0.046867
     21 H9           2.6590    -0.8720    -1.5710 hn         1 S10       0.323500
     22 H8C1         1.0000    -2.4290    -1.0490 h1         1 S10       0.056450
     23 H8C2         1.4660    -2.3320     0.6630 h1         1 S10       0.056450
     24 H7C1         0.2140    -0.1620     0.8730 hc         1 S10       0.053200
     25 H7C2        -0.2320    -0.2540    -0.8320 hc         1 S10       0.053200
     26 H6C1        -1.5010    -2.3780    -0.3870 h1         1 S10       0.056450
     27 H6C2        -1.0370    -2.2890     1.3260 h1         1 S10       0.056450
     28 H5          -2.6830    -0.6710     1.6720 hn         1 S10       0.323500
     29 H2C1        -4.5740     1.9340    -1.0730 h1         1 S10       0.049200
     30 H2C2        -5.6430     0.5070    -1.1080 h1         1 S10       0.049200
     31 H1C1        -6.8170     2.4770    -0.1100 hc         1 S10       0.046867
     32 H1C2        -6.6260     1.1900     1.1010 hc         1 S10       0.046867
     33 H1C3        -5.5570     2.6160     1.1360 hc         1 S10       0.046867
@<TRIPOS>BOND
     1     1     2 2   
     2     2     3 1   
     3     2     6 1   
     4     3     4 1   
     5     4     5 1   
     6     4    16 1   
     7     4    17 1   
     8     5    18 1   
     9     5    19 1   
    10     5    20 1   
    11     6     7 1   
    12     6    21 1   
    13     7     8 1   
    14     7    22 1   
    15     7    23 1   
    16     8     9 1   
    17     8    24 1   
    18     8    25 1   
    19     9    10 1   
    20     9    26 1   
    21     9    27 1   
    22    10    11 1   
    23    10    28 1   
    24    11    12 2   
    25    11    13 1   
    26    13    14 1   
    27    14    15 1   
    28    14    29 1   
    29    14    30 1   
    30    15    31 1   
    31    15    32 1   
    32    15    33 1   
@<TRIPOS>SUBSTRUCTURE
     1 S10         1 TEMP              0 ****  ****    0 ROOT
