@<TRIPOS>MOLECULE
S10
   33    32     1     0     0
SMALL
bcc


@<TRIPOS>ATOM
      1 O15          3.8540    -1.3790     0.8390 o          1 S10      -0.593000
      2 C10          3.6320    -0.3630     0.2090 c          1 S10       0.756600
      3 O11          4.5740     0.5210    -0.1350 os         1 S10      -0.445400
      4 C12          5.9200     0.2400     0.2620 c3         1 S10       0.162900
      5 C13          6.7940     1.3530    -0.2630 c3         1 S10      -0.099600
      6 N9           2.4210     0.0350    -0.2200 ns         1 S10      -0.569400
      7 C8           1.2380    -0.7850    -0.0920 c3         1 S10       0.117000
      8 C7          -0.0100     0.0790    -0.0030 c3         1 S10      -0.114400
      9 C6          -1.2580    -0.7860     0.0920 c3         1 S10       0.117000
     10 N5          -2.4410     0.0300     0.2360 ns         1 S10      -0.569400
     11 C4          -3.6460    -0.3350    -0.2380 c          1 S10       0.756600
     12 O14         -3.8620    -1.3170    -0.9210 o          1 S10      -0.593000
     13 O3          -4.5860     0.5410     0.1290 os         1 S10      -0.445400
     14 C2          -5.9300     0.2810    -0.2900 c3         1 S10       0.162900
     15 C1          -6.8060     1.3690     0.2840 c3         1 S10      -0.099600
     16 H121         6.2360    -0.7230    -0.1450 h1         1 S10       0.049200
     17 H122         5.9840     0.1790     1.3510 h1         1 S10       0.049200
     18 H131         6.4990     2.3210     0.1420 hc         1 S10       0.046867
     19 H132         7.8260     1.1690     0.0350 hc         1 S10       0.046867
     20 H133         6.7640     1.4070    -1.3510 hc         1 S10       0.046867
     21 H9           2.3730     0.8330    -0.8350 hn         1 S10       0.323500
     22 H8C1         1.1500    -1.4770    -0.9370 h1         1 S10       0.056450
     23 H8C2         1.3300    -1.3930     0.8080 h1         1 S10       0.056450
     24 H7C1         0.0650     0.7300     0.8730 hc         1 S10       0.053200
     25 H7C2        -0.0860     0.7260    -0.8810 hc         1 S10       0.053200
     26 H6C1        -1.3580    -1.3900    -0.8090 h1         1 S10       0.056450
     27 H6C2        -1.1630    -1.4820     0.9330 h1         1 S10       0.056450
     28 H5          -2.4010     0.7990     0.8880 hn         1 S10       0.323500
     29 H2C1        -5.9880     0.2760    -1.3810 h1         1 S10       0.049200
     30 H2C2        -6.2510    -0.6990     0.0670 h1         1 S10       0.049200
     31 H1C1        -7.8380     1.1940    -0.0190 hc         1 S10       0.046867
     32 H1C2        -6.7740     1.3750     1.3740 hc         1 S10       0.046867
     33 H1C3        -6.5140     2.3540    -0.0780 hc         1 S10       0.046867
@<TRIPOS>BOND
     1     1     2 2   
     2     2     3 1   
     3     2     6 1   
     4     3     4 1   
     5     4     5 1   
     6     4    16 1   
     7     4    17 1   
     8     5    18 1   
     9     5    19 1   
    10     5    20 1   
    11     6     7 1   
    12     6    21 1   
    13     7     8 1   
    14     7    22 1   
    15     7    23 1   
    16     8     9 1   
    17     8    24 1   
    18     8    25 1   
    19     9    10 1   
    20     9    26 1   
    21     9    27 1   
    22    10    11 1   
    23    10    28 1   
    24    11    12 2   
    25    11    13 1   
    26    13    14 1   
    27    14    15 1   
    28    14    29 1   
    29    14    30 1   
    30    15    31 1   
    31    15    32 1   
    32    15    33 1   
@<TRIPOS>SUBSTRUCTURE
     1 S10         1 TEMP              0 ****  ****    0 ROOT
