@<TRIPOS>MOLECULE
S11
   49    51     1     0     0
SMALL
bcc


@<TRIPOS>ATOM
      1 N1           2.6080     0.3190    -1.5050 nc         1 S11      -0.665000
      2 C2           2.5810     0.7340    -0.2120 cc         1 S11       0.399600
      3 C3           1.3790     1.3490     0.0420 cd         1 S11      -0.191700
      4 N4           0.6690     1.3030    -1.1450 na         1 S11      -0.151900
      5 C5           1.4610     0.6730    -2.0360 cd         1 S11       0.424800
      6 C6          -0.0780     0.8680     2.3340 ca         1 S11       0.021900
      7 S1           0.8220     2.1380     1.4780 ss         1 S11      -0.111800
      8 C7          -0.9410     1.2870     3.3410 ca         1 S11      -0.117500
      9 C8          -1.6360     0.3310     4.0620 ca         1 S11       0.040400
     10 CL1         -2.7120     0.8420     5.3130 cl         1 S11      -0.094400
     11 C9          -1.5070    -1.0250     3.8030 ca         1 S11      -0.119000
     12 C10         -0.6420    -1.4060     2.7910 ca         1 S11       0.040400
     13 CL2         -0.4580    -3.0860     2.4320 cl         1 S11      -0.094400
     14 C11          0.0840    -0.4830     2.0570 ca         1 S11      -0.117500
     15 C12          3.7310     0.5220     0.7180 c3         1 S11      -0.090000
     16 C13          4.0080    -0.9670     0.9240 c3         1 S11      -0.082100
     17 C14          4.9780     1.2410     0.2020 c3         1 S11      -0.082100
     18 C15         -0.6170     1.9140    -1.4180 c3         1 S11       0.075600
     19 C16         -1.6950     0.9260    -1.7710 ca         1 S11      -0.070300
     20 C21         -1.9510    -0.1930    -0.9900 ca         1 S11      -0.227300
     21 C20         -2.9850    -1.0400    -1.3510 ca         1 S11       0.396200
     22 N19         -3.7570    -0.8440    -2.4150 nb         1 S11      -0.664000
     23 C18         -3.5070     0.2220    -3.1620 ca         1 S11       0.396200
     24 C17         -2.4960     1.1310    -2.8840 ca         1 S11      -0.227300
     25 CA           1.0700     0.4080    -3.4460 c3         1 S11       0.130100
     26 O22          0.2680    -0.7690    -3.4500 os         1 S11      -0.431900
     27 C23         -0.4540    -1.0080    -4.5550 c          1 S11       0.752100
     28 N24         -1.1840    -2.1260    -4.4160 nt         1 S11      -0.649000
     29 O25         -0.4100    -0.3130    -5.5480 o          1 S11      -0.594000
     30 H7          -1.0760     2.3390     3.5570 ha         1 S11       0.163500
     31 H9          -2.0670    -1.7580     4.3670 ha         1 S11       0.166000
     32 H11          0.7550    -0.8140     1.2750 ha         1 S11       0.163500
     33 H12          3.4550     0.9570     1.6830 hc         1 S11       0.058700
     34 H131         4.8230    -1.1080     1.6350 hc         1 S11       0.039533
     35 H132         3.1340    -1.4900     1.3160 hc         1 S11       0.039533
     36 H133         4.2920    -1.4460    -0.0130 hc         1 S11       0.039533
     37 H141         5.2940     0.8280    -0.7570 hc         1 S11       0.039533
     38 H142         4.7980     2.3080     0.0670 hc         1 S11       0.039533
     39 H143         5.8030     1.1270     0.9060 hc         1 S11       0.039533
     40 H151        -0.9080     2.4690    -0.5250 h1         1 S11       0.081700
     41 H152        -0.5010     2.6490    -2.2160 h1         1 S11       0.081700
     42 H21         -1.3650    -0.4110    -0.1070 ha         1 S11       0.149000
     43 H20         -3.2020    -1.9150    -0.7480 h4         1 S11       0.025600
     44 H18         -4.1390     0.3660    -4.0310 h4         1 S11       0.025600
     45 H17         -2.3420     1.9810    -3.5370 ha         1 S11       0.149000
     46 HA1          0.5270     1.2550    -3.8680 h1         1 S11       0.073200
     47 HA2          1.9740     0.2600    -4.0380 h1         1 S11       0.073200
     48 H241        -1.8670    -2.3430    -5.1210 hn         1 S11       0.328500
     49 H242        -1.3050    -2.5590    -3.5160 hn         1 S11       0.328500
@<TRIPOS>BOND
     1     1     2 1   
     2     1     5 2   
     3     2     3 2   
     4     2    15 1   
     5     3     4 1   
     6     3     7 1   
     7     4     5 1   
     8     4    18 1   
     9     5    25 1   
    10     6     7 1   
    11     6     8 ar  
    12     6    14 ar  
    13     8     9 ar  
    14     8    30 1   
    15     9    10 1   
    16     9    11 ar  
    17    11    12 ar  
    18    11    31 1   
    19    12    13 1   
    20    12    14 ar  
    21    14    32 1   
    22    15    16 1   
    23    15    17 1   
    24    15    33 1   
    25    16    34 1   
    26    16    35 1   
    27    16    36 1   
    28    17    37 1   
    29    17    38 1   
    30    17    39 1   
    31    18    19 1   
    32    18    40 1   
    33    18    41 1   
    34    19    20 ar  
    35    19    24 ar  
    36    20    21 ar  
    37    20    42 1   
    38    21    22 ar  
    39    21    43 1   
    40    22    23 ar  
    41    23    24 ar  
    42    23    44 1   
    43    24    45 1   
    44    25    26 1   
    45    25    46 1   
    46    25    47 1   
    47    26    27 1   
    48    27    28 1   
    49    27    29 2   
    50    28    48 1   
    51    28    49 1   
@<TRIPOS>SUBSTRUCTURE
     1 S11         1 TEMP              0 ****  ****    0 ROOT
