@<TRIPOS>MOLECULE
S11
   49    51     1     0     0
SMALL
No Charge or Current Charge


@<TRIPOS>ATOM
      1 N1           2.7800     0.1360    -1.4880 nc         1 S11      -0.665000
      2 C2           2.7620     0.6420    -0.2150 cc         1 S11       0.334300
      3 C3           1.5980     1.3290    -0.0240 cd         1 S11      -0.304000
      4 N4           0.8420     1.2420    -1.1760 na         1 S11      -0.130500
      5 C5           1.6300     0.5020    -2.0570 cd         1 S11       0.424800
      6 C6          -0.1010     1.0300     1.8870 ca         1 S11      -0.105000
      7 S1           1.1510     2.2300     1.4360 ss         1 S11       0.142000
      8 C7          -1.4270     1.4590     2.0850 ca         1 S11      -0.099500
      9 C8          -2.4220     0.5350     2.4420 ca         1 S11       0.132000
     10 Cl1         -4.0780     1.0790     2.6740 cl         1 S11      -0.186000
     11 C9          -2.1000    -0.8210     2.6090 ca         1 S11      -0.101000
     12 C10         -0.7780    -1.2500     2.4190 ca         1 S11       0.132000
     13 Cl2         -0.3710    -2.9490     2.6140 cl         1 S11      -0.186000
     14 C11          0.2220    -0.3300     2.0650 ca         1 S11      -0.099500
     15 C12          3.9210     0.4410     0.7400 c3         1 S11      -0.090000
     16 C13          4.2940    -1.0510     0.9080 c3         1 S11      -0.082100
     17 C14          5.1460     1.2910     0.3350 c3         1 S11      -0.082100
     18 C15         -0.5000     1.8050    -1.4280 c3         1 S11       0.104900
     19 C16         -1.6750     0.8550    -1.1740 ca         1 S11      -0.070300
     20 C21         -1.5130    -0.5190    -0.8920 ca         1 S11      -0.144000
     21 C20         -2.6460    -1.3210    -0.6770 ca         1 S11       0.330900
     22 N19         -3.9100    -0.8430    -0.7260 nb         1 S11      -0.664000
     23 C18         -4.0700     0.4740    -0.9900 ca         1 S11       0.330900
     24 C17         -2.9920     1.3470    -1.2190 ca         1 S11      -0.144000
     25 CA           1.2790     0.1860    -3.5000 c3         1 S11       0.153300
     26 O22          0.1520    -0.7180    -3.5660 os         1 S11      -0.455100
     27 C23         -0.3050    -1.0660    -4.7970 c          1 S11       0.636100
     28 N24         -1.3500    -1.8950    -4.6780 nt         1 S11      -0.582000
     29 O25          0.1470    -0.6950    -5.8640 o          1 S11      -0.545000
     30 H7          -1.6880     2.5070     1.9570 ha         1 S11       0.145500
     31 H9          -2.8720    -1.5350     2.8800 ha         1 S11       0.148000
     32 H11          1.2420    -0.6760     1.9280 ha         1 S11       0.145500
     33 H12          3.6080     0.7920     1.7300 hc         1 S11       0.058700
     34 H131         5.0720    -1.1720     1.6720 hc         1 S11       0.039533
     35 H132         3.4200    -1.6370     1.2180 hc         1 S11       0.039533
     36 H133         4.6710    -1.4710    -0.0320 hc         1 S11       0.039533
     37 H141         5.5340     0.9780    -0.6410 hc         1 S11       0.039533
     38 H142         4.8730     2.3510     0.2720 hc         1 S11       0.039533
     39 H143         5.9500     1.1900     1.0740 hc         1 S11       0.039533
     40 H151        -0.6250     2.6950    -0.8000 h1         1 S11       0.081700
     41 H152        -0.5440     2.1450    -2.4700 h1         1 S11       0.081700
     42 H21         -0.5310    -0.9760    -0.8330 ha         1 S11       0.131000
     43 H20         -2.5380    -2.3820    -0.4570 h4         1 S11       0.025600
     44 H18         -5.0960     0.8420    -1.0210 h4         1 S11       0.025600
     45 H17         -3.1880     2.3950    -1.4280 ha         1 S11       0.131000
     46 HA1          1.0540     1.1280    -4.0150 h1         1 S11       0.073200
     47 HA2          2.1570    -0.2580    -3.9860 h1         1 S11       0.073200
     48 H241        -1.8040    -2.2450    -5.5070 hn         1 S11       0.328500
     49 H242        -1.6700    -2.1560    -3.7600 hn         1 S11       0.328500
@<TRIPOS>BOND
     1     1     2 1   
     2     1     5 2   
     3     2     3 2   
     4     2    15 1   
     5     3     4 1   
     6     3     7 1   
     7     4     5 1   
     8     4    18 1   
     9     5    25 1   
    10     6     7 1   
    11     6     8 ar  
    12     6    14 ar  
    13     8     9 ar  
    14     8    30 1   
    15     9    10 1   
    16     9    11 ar  
    17    11    12 ar  
    18    11    31 1   
    19    12    13 1   
    20    12    14 ar  
    21    14    32 1   
    22    15    16 1   
    23    15    17 1   
    24    15    33 1   
    25    16    34 1   
    26    16    35 1   
    27    16    36 1   
    28    17    37 1   
    29    17    38 1   
    30    17    39 1   
    31    18    19 1   
    32    18    40 1   
    33    18    41 1   
    34    19    20 ar  
    35    19    24 ar  
    36    20    21 ar  
    37    20    42 1   
    38    21    22 ar  
    39    21    43 1   
    40    22    23 ar  
    41    23    24 ar  
    42    23    44 1   
    43    24    45 1   
    44    25    26 1   
    45    25    46 1   
    46    25    47 1   
    47    26    27 1   
    48    27    28 1   
    49    27    29 2   
    50    28    48 1   
    51    28    49 1   
@<TRIPOS>SUBSTRUCTURE
     1 S11         1 TEMP              0 ****  ****    0 ROOT
