@<TRIPOS>MOLECULE
S12
   79    78     1     0     0
SMALL
bcc


@<TRIPOS>ATOM
      1 C            8.7870     9.4740    -4.8680 c          1 S12       0.951600
      2 N            8.1570     9.9730    -7.2260 n8         1 S12      -0.861800
      3 P            7.4710     5.6730    -6.9580 p5         1 S12       1.398800
      4 OG           7.9740     7.1570    -6.4880 os         1 S12      -0.527200
      5 C2           5.4240     5.6840    -8.6680 c3         1 S12       0.233400
      6 O2           6.7440     6.0820    -8.3860 os         1 S12      -0.563200
      7 C3           5.0260     6.2530   -10.0150 c3         1 S12       0.132100
      8 O3           6.4320     5.1400    -6.0180 o          1 S12      -0.833500
      9 C4           3.5670     5.9290   -10.2920 c3         1 S12       0.093400
     10 O4           8.7140     4.9060    -7.2770 o          1 S12      -0.833500
     11 C5           2.1070     6.1970   -12.1520 c          1 S12       0.645100
     12 C6           2.0100     6.8300   -13.5140 c3         1 S12      -0.137400
     13 C7           3.1340     6.3920   -14.4560 c3         1 S12      -0.070400
     14 C8           3.0150     7.0340   -15.8320 c3         1 S12      -0.075400
     15 C9           4.1530     6.6290   -16.7590 c3         1 S12      -0.078400
     16 CA           7.6700     9.4850    -5.9460 c3         1 S12       0.021500
     17 CB           7.0130     8.1250    -6.1010 c3         1 S12       0.236400
     18 C10          4.0760     7.2900   -18.1310 c3         1 S12      -0.073400
     19 C11          5.1780     6.8540   -19.0930 c3         1 S12      -0.068400
     20 O11          5.8680     5.7010   -10.9980 oh         1 S12      -0.563800
     21 C12          6.5780     7.3070   -18.6710 c3         1 S12      -0.046200
     22 C13          7.6470     6.8120   -19.5930 c2         1 S12      -0.156200
     23 C14          8.4550     7.5800   -20.3190 c2         1 S12      -0.179200
     24 O51          1.2700     5.4940   -11.6440 o          1 S12      -0.549000
     25 O52          3.2570     6.5090   -11.5590 os         1 S12      -0.433900
     26 O            8.5170     8.8790    -3.8070 o          1 S12      -0.850300
     27 OXT          9.8340    10.0980    -5.1310 o          1 S12      -0.850300
     28 H            7.4030    10.4140    -7.7370 hn         1 S12       0.307800
     29 H2           8.8530    10.6850    -7.0490 hn         1 S12       0.307800
     30 H2B          5.3260     4.5910    -8.6920 h1         1 S12       0.016200
     31 H2A          4.7210     6.0520    -7.9130 h1         1 S12       0.016200
     32 H3           5.1350     7.3470    -9.9700 h1         1 S12       0.050700
     33 H4           3.4120     4.8470   -10.3190 h1         1 S12       0.054200
     34 H4A          2.9200     6.3500    -9.5170 h1         1 S12       0.054200
     35 H6           1.0380     6.5780   -13.9390 hc         1 S12       0.061700
     36 H6A          2.0420     7.9170   -13.3950 hc         1 S12       0.061700
     37 H7           4.1030     6.6530   -14.0240 hc         1 S12       0.056200
     38 H8           2.0540     6.7650   -16.2840 hc         1 S12       0.033200
     39 H9           5.1030     6.8780   -16.2760 hc         1 S12       0.043700
     40 H9A          4.1520     5.5400   -16.8840 hc         1 S12       0.043700
     41 HA           6.8780    10.1330    -5.5300 h1         1 S12      -0.031300
     42 HB2          6.2150     8.2020    -6.8510 h1         1 S12      -0.009300
     43 HB3          6.5390     7.8460    -5.1570 h1         1 S12      -0.009300
     44 H10          3.1040     7.0630   -18.5780 hc         1 S12       0.034200
     45 H11          5.1620     5.7630   -19.1920 hc         1 S12       0.035200
     46 HO11         5.7060     6.1540   -11.8310 ho         1 S12       0.378000
     47 H12          6.6060     8.3990   -18.6170 hc         1 S12       0.050700
     48 H14          8.3460     8.6620   -20.2590 ha         1 S12       0.115000
     49 C15          9.5270     7.0740   -21.2320 c3         1 S12      -0.039200
     50 C16          9.3330     7.4980   -22.6880 c3         1 S12      -0.071400
     51 C17         10.4510     6.9910   -23.5900 c3         1 S12      -0.076400
     52 C18         10.3130     7.4280   -25.0430 c3         1 S12      -0.073400
     53 C19         11.4320     6.8950   -25.9290 c3         1 S12      -0.075400
     54 C20         11.3300     7.3460   -27.3800 c3         1 S12      -0.075400
     55 C21         12.4520     6.8050   -28.2580 c3         1 S12      -0.075400
     56 C22         12.3530     7.2690   -29.7040 c3         1 S12      -0.088100
     57 H23          3.1220     5.3030   -14.5610 hc         1 S12       0.056200
     58 H24          3.0060     8.1240   -15.7210 hc         1 S12       0.033200
     59 H25          4.1080     8.3790   -18.0120 hc         1 S12       0.034200
     60 H26          4.9680     7.2530   -20.0890 hc         1 S12       0.035200
     61 H27          6.7870     6.9410   -17.6610 hc         1 S12       0.050700
     62 H28          7.7550     5.7300   -19.6600 ha         1 S12       0.114000
     63 H30         10.4980     7.4500   -20.8910 hc         1 S12       0.043200
     64 H31          9.5800     5.9830   -21.1710 hc         1 S12       0.043200
     65 H32          8.3690     7.1260   -23.0490 hc         1 S12       0.038200
     66 H33          9.2820     8.5900   -22.7460 hc         1 S12       0.038200
     67 H34         11.4140     7.3390   -23.2000 hc         1 S12       0.037200
     68 H35         10.4840     5.8970   -23.5420 hc         1 S12       0.037200
     69 H36          9.3470     7.0940   -25.4360 hc         1 S12       0.036700
     70 H37         10.3000     8.5220   -25.0940 hc         1 S12       0.036700
     71 H38         12.3980     7.2120   -25.5200 hc         1 S12       0.037200
     72 H39         11.4330     5.8000   -25.8890 hc         1 S12       0.037200
     73 H40         10.3640     7.0340   -27.7920 hc         1 S12       0.035700
     74 H41         11.3350     8.4410   -27.4210 hc         1 S12       0.035700
     75 H42         13.4160     7.1120   -27.8400 hc         1 S12       0.036700
     76 H43         12.4420     5.7110   -28.2220 hc         1 S12       0.036700
     77 H44         13.1660     6.8690   -30.3110 hc         1 S12       0.029367
     78 H45         11.4130     6.9490   -30.1580 hc         1 S12       0.029367
     79 H46         12.3960     8.3580   -29.7730 hc         1 S12       0.029367
@<TRIPOS>BOND
     1     1    16 1   
     2     1    26 1   
     3     1    27 1   
     4     2    16 1   
     5     2    28 1   
     6     2    29 1   
     7     3     4 1   
     8     3     6 1   
     9     3     8 1   
    10     3    10 1   
    11     4    17 1   
    12     5     6 1   
    13     5     7 1   
    14     5    30 1   
    15     5    31 1   
    16     7     9 1   
    17     7    20 1   
    18     7    32 1   
    19     9    25 1   
    20     9    33 1   
    21     9    34 1   
    22    11    12 1   
    23    11    24 2   
    24    11    25 1   
    25    12    13 1   
    26    12    35 1   
    27    12    36 1   
    28    13    14 1   
    29    13    37 1   
    30    13    57 1   
    31    14    15 1   
    32    14    38 1   
    33    14    58 1   
    34    15    18 1   
    35    15    39 1   
    36    15    40 1   
    37    16    17 1   
    38    16    41 1   
    39    17    42 1   
    40    17    43 1   
    41    18    19 1   
    42    18    44 1   
    43    18    59 1   
    44    19    21 1   
    45    19    45 1   
    46    19    60 1   
    47    20    46 1   
    48    21    22 1   
    49    21    47 1   
    50    21    61 1   
    51    22    23 2   
    52    22    62 1   
    53    23    48 1   
    54    23    49 1   
    55    49    50 1   
    56    49    63 1   
    57    49    64 1   
    58    50    51 1   
    59    50    65 1   
    60    50    66 1   
    61    51    52 1   
    62    51    67 1   
    63    51    68 1   
    64    52    53 1   
    65    52    69 1   
    66    52    70 1   
    67    53    54 1   
    68    53    71 1   
    69    53    72 1   
    70    54    55 1   
    71    54    73 1   
    72    54    74 1   
    73    55    56 1   
    74    55    75 1   
    75    55    76 1   
    76    56    77 1   
    77    56    78 1   
    78    56    79 1   
@<TRIPOS>SUBSTRUCTURE
     1 S12         1 TEMP              0 ****  ****    0 ROOT
