@<TRIPOS>MOLECULE
S12
   79    78     1     0     0
SMALL
No Charge or Current Charge


@<TRIPOS>ATOM
      1 C            5.3070    10.1430    -5.0320 c          1 S12       0.951600
      2 N            5.5040     9.6270    -7.6510 n8         1 S12      -0.861800
      3 P            6.6480     5.8930    -5.2960 p5         1 S12       1.398800
      4 OG           6.3000     7.3990    -5.7590 os         1 S12      -0.527200
      5 C2           5.8870     4.8810    -7.6420 c3         1 S12       0.233400
      6 O2           6.9430     5.1980    -6.7230 os         1 S12      -0.563200
      7 C3           5.9110     5.8830    -8.8330 c3         1 S12       0.132100
      8 O3           5.5180     5.2320    -4.5780 o          1 S12      -0.833500
      9 C4           4.6110     5.8140    -9.6680 c3         1 S12       0.093400
     10 O4           7.8870     5.8850    -4.4610 o          1 S12      -0.833500
     11 C5           3.7000     6.8030   -11.6740 c          1 S12       0.645100
     12 C6           4.0150     7.7560   -12.8310 c3         1 S12      -0.137400
     13 C7           4.5860     6.9930   -14.0500 c3         1 S12      -0.070400
     14 C8           4.9260     7.9220   -15.2370 c3         1 S12      -0.075400
     15 C9           5.4950     7.1610   -16.4550 c3         1 S12      -0.078400
     16 CA           4.8670     9.3020    -6.3080 c3         1 S12       0.021500
     17 CB           4.9350     7.7900    -5.9540 c3         1 S12       0.236400
     18 C10          5.8370     8.0930   -17.6410 c3         1 S12      -0.073400
     19 C11          6.3280     7.3600   -18.9120 c3         1 S12      -0.068400
     20 O11          7.0360     5.6300    -9.6950 oh         1 S12      -0.563800
     21 C12          7.6810     6.6300   -18.7510 c3         1 S12      -0.046200
     22 C13          8.1610     6.0310   -20.0560 c2         1 S12      -0.156200
     23 C14          9.2690     6.4000   -20.7160 c2         1 S12      -0.179200
     24 O51          2.6510     6.1800   -11.5730 o          1 S12      -0.549000
     25 O52          4.7520     6.6980   -10.8000 os         1 S12      -0.433900
     26 O            4.5290    10.2090    -4.0830 o          1 S12      -0.850300
     27 OXT          6.3270    10.8290    -5.0740 o          1 S12      -0.850300
     28 H            5.0130     9.1250    -8.3950 hn         1 S12       0.307800
     29 H2           5.3620    10.6200    -7.8600 hn         1 S12       0.307800
     30 H2B          6.0060     3.8570    -8.0220 h1         1 S12       0.016200
     31 H2A          4.9080     4.9340    -7.1480 h1         1 S12       0.016200
     32 H3           5.9870     6.9000    -8.4290 h1         1 S12       0.050700
     33 H4           4.4430     4.7800   -10.0010 h1         1 S12       0.054200
     34 H4A          3.7610     6.1160    -9.0420 h1         1 S12       0.054200
     35 H6           3.0970     8.2750   -13.1300 hc         1 S12       0.061700
     36 H6A          4.7770     8.4740   -12.5050 hc         1 S12       0.061700
     37 H7           5.4910     6.4510   -13.7450 hc         1 S12       0.056200
     38 H8           4.0220     8.4640   -15.5400 hc         1 S12       0.033200
     39 H9           6.3950     6.6180   -16.1430 hc         1 S12       0.043700
     40 H9A          4.7640     6.4110   -16.7850 hc         1 S12       0.043700
     41 HA           3.8030     9.5310    -6.4630 h1         1 S12      -0.031300
     42 HB2          4.4730     7.2090    -6.7620 h1         1 S12      -0.009300
     43 HB3          4.3500     7.6120    -5.0430 h1         1 S12      -0.009300
     44 H10          4.9420     8.6720   -17.9030 hc         1 S12       0.034200
     45 H11          5.5640     6.6420   -19.2350 hc         1 S12       0.035200
     46 HO11         6.8520     6.1230   -10.5220 ho         1 S12       0.378000
     47 H12          8.4230     7.3370   -18.3610 hc         1 S12       0.050700
     48 H14          9.9080     7.1900   -20.3210 ha         1 S12       0.115000
     49 C15          9.7510     5.7990   -22.0200 c3         1 S12      -0.039200
     50 C16          9.7300     6.8230   -23.1740 c3         1 S12      -0.071400
     51 C17         10.2140     6.2340   -24.5180 c3         1 S12      -0.076400
     52 C18         10.1910     7.2610   -25.6710 c3         1 S12      -0.073400
     53 C19         10.6740     6.6720   -27.0150 c3         1 S12      -0.075400
     54 C20         10.6510     7.6990   -28.1680 c3         1 S12      -0.075400
     55 C21         11.1340     7.1110   -29.5110 c3         1 S12      -0.075400
     56 C22         11.1120     8.1350   -30.6620 c3         1 S12      -0.088100
     57 H23          3.8580     6.2410   -14.3780 hc         1 S12       0.056200
     58 H24          5.6560     8.6730   -14.9090 hc         1 S12       0.033200
     59 H25          6.5970     8.8190   -17.3260 hc         1 S12       0.034200
     60 H26          6.4240     8.0970   -19.7190 hc         1 S12       0.035200
     61 H27          7.5840     5.8340   -18.0030 hc         1 S12       0.050700
     62 H28          7.5230     5.2390   -20.4500 ha         1 S12       0.114000
     63 H30         10.7720     5.4170   -21.8940 hc         1 S12       0.043200
     64 H31          9.1290     4.9390   -22.2960 hc         1 S12       0.043200
     65 H32          8.7090     7.2050   -23.2940 hc         1 S12       0.038200
     66 H33         10.3630     7.6790   -22.9070 hc         1 S12       0.038200
     67 H34         11.2350     5.8510   -24.3970 hc         1 S12       0.037200
     68 H35          9.5800     5.3790   -24.7850 hc         1 S12       0.037200
     69 H36          9.1700     7.6440   -25.7920 hc         1 S12       0.036700
     70 H37         10.8250     8.1170   -25.4040 hc         1 S12       0.036700
     71 H38         11.6950     6.2890   -26.8930 hc         1 S12       0.037200
     72 H39         10.0410     5.8170   -27.2810 hc         1 S12       0.037200
     73 H40          9.6300     8.0820   -28.2890 hc         1 S12       0.035700
     74 H41         11.2850     8.5550   -27.9010 hc         1 S12       0.035700
     75 H42         12.1560     6.7280   -29.3950 hc         1 S12       0.036700
     76 H43         10.5020     6.2560   -29.7830 hc         1 S12       0.036700
     77 H44         11.4620     7.6720   -31.5920 hc         1 S12       0.029367
     78 H45         10.0950     8.5110   -30.8270 hc         1 S12       0.029367
     79 H46         11.7640     8.9870   -30.4360 hc         1 S12       0.029367
@<TRIPOS>BOND
     1     1    16 1   
     2     1    26 1   
     3     1    27 1   
     4     2    16 1   
     5     2    28 1   
     6     2    29 1   
     7     3     4 1   
     8     3     6 1   
     9     3     8 1   
    10     3    10 1   
    11     4    17 1   
    12     5     6 1   
    13     5     7 1   
    14     5    30 1   
    15     5    31 1   
    16     7     9 1   
    17     7    20 1   
    18     7    32 1   
    19     9    25 1   
    20     9    33 1   
    21     9    34 1   
    22    11    12 1   
    23    11    24 2   
    24    11    25 1   
    25    12    13 1   
    26    12    35 1   
    27    12    36 1   
    28    13    14 1   
    29    13    37 1   
    30    13    57 1   
    31    14    15 1   
    32    14    38 1   
    33    14    58 1   
    34    15    18 1   
    35    15    39 1   
    36    15    40 1   
    37    16    17 1   
    38    16    41 1   
    39    17    42 1   
    40    17    43 1   
    41    18    19 1   
    42    18    44 1   
    43    18    59 1   
    44    19    21 1   
    45    19    45 1   
    46    19    60 1   
    47    20    46 1   
    48    21    22 1   
    49    21    47 1   
    50    21    61 1   
    51    22    23 2   
    52    22    62 1   
    53    23    48 1   
    54    23    49 1   
    55    49    50 1   
    56    49    63 1   
    57    49    64 1   
    58    50    51 1   
    59    50    65 1   
    60    50    66 1   
    61    51    52 1   
    62    51    67 1   
    63    51    68 1   
    64    52    53 1   
    65    52    69 1   
    66    52    70 1   
    67    53    54 1   
    68    53    71 1   
    69    53    72 1   
    70    54    55 1   
    71    54    73 1   
    72    54    74 1   
    73    55    56 1   
    74    55    75 1   
    75    55    76 1   
    76    56    77 1   
    77    56    78 1   
    78    56    79 1   
@<TRIPOS>SUBSTRUCTURE
     1 S12         1 TEMP              0 ****  ****    0 ROOT
