@<TRIPOS>MOLECULE
S13
   43    45     1     0     0
SMALL
No Charge or Current Charge


@<TRIPOS>ATOM
      1 C10         35.2800    25.3070    30.6260 ca         1 S13      -0.092500
      2 C11         36.1360    25.8630    31.5920 ca         1 S13      -0.109500
      3 C12         36.3050    25.2360    32.8390 ca         1 S13      -0.065300
      4 C15         37.2290    25.8400    33.8850 c3         1 S13      -0.048800
      5 C13         35.6030    24.0480    33.1110 ca         1 S13      -0.109500
      6 C14         34.7470    23.4910    32.1450 ca         1 S13      -0.092500
      7 C9          34.5750    24.1110    30.8900 ca         1 S13      -0.100300
      8 C8          33.6360    23.4790    29.8590 c5         1 S13       0.154800
      9 C7          34.4870    23.0080    28.6640 c5         1 S13      -0.103400
     10 N1          32.7050    24.4240    29.2190 n7         1 S13      -0.530900
     11 O7          32.3060    23.7280    27.9880 os         1 S13      -0.314300
     12 C1          33.3580    22.7780    27.6260 c5         1 S13       0.322000
     13 O5          32.8310    21.4500    27.9120 os         1 S13      -0.442000
     14 C5          31.8370    20.8870    27.0080 c6         1 S13       0.112300
     15 C6          31.5640    19.4070    27.4420 c3         1 S13       0.170600
     16 O6          32.7390    18.5670    27.4360 oh         1 S13      -0.710000
     17 C4          32.2390    21.0320    25.5040 c6         1 S13       0.095300
     18 O4          31.1800    20.6000    24.6190 oh         1 S13      -0.719000
     19 C3          32.6410    22.4950    25.1860 c6         1 S13       0.115300
     20 O3          33.0440    22.6060    23.8100 oh         1 S13      -0.641000
     21 C2          33.8030    22.9040    26.1230 c6         1 S13       0.163300
     22 O2          34.2810    24.2220    25.7680 oh         1 S13      -0.694000
     23 H10         35.1700    25.8110    29.6690 ha         1 S13       0.114500
     24 H11         36.6690    26.7850    31.3690 ha         1 S13       0.115000
     25 H151        38.0570    26.3870    33.4190 hc         1 S13       0.045367
     26 H152        36.6840    26.5410    34.5280 hc         1 S13       0.045367
     27 H153        37.6660    25.0670    34.5270 hc         1 S13       0.045367
     28 H13         35.7200    23.5530    34.0720 ha         1 S13       0.115000
     29 H14         34.2150    22.5710    32.3750 ha         1 S13       0.114500
     30 H8          33.0780    22.6370    30.2970 h1         1 S13       0.097700
     31 H71         35.0540    22.0980    28.8850 hc         1 S13       0.085200
     32 H72         35.1990    23.7660    28.3200 hc         1 S13       0.085200
     33 HN1         33.2290    25.2450    28.8910 hn         1 S13       0.392000
     34 H5          30.9040    21.4480    27.1630 h1         1 S13       0.058700
     35 H61         30.7860    18.9870    26.7890 h1         1 S13       0.057700
     36 H62         31.1380    19.4380    28.4550 h1         1 S13       0.057700
     37 HO6         32.9120    18.3190    26.4990 ho         1 S13       0.501000
     38 H4          33.1290    20.4040    25.3400 h1         1 S13       0.099700
     39 HO4         30.3790    21.1420    24.8150 ho         1 S13       0.504000
     40 H3          31.7790    23.1520    25.3780 h1         1 S13       0.041700
     41 HO3         32.4780    21.9640    23.3200 ho         1 S13       0.453000
     42 H2          34.6160    22.1770    25.9740 h1         1 S13       0.101700
     43 HO2         34.1480    24.2720    24.7900 ho         1 S13       0.508000
@<TRIPOS>BOND
     1     1     2 ar  
     2     1     7 ar  
     3     1    23 1   
     4     2     3 ar  
     5     2    24 1   
     6     3     4 1   
     7     3     5 ar  
     8     4    25 1   
     9     4    26 1   
    10     4    27 1   
    11     5     6 ar  
    12     5    28 1   
    13     6     7 ar  
    14     6    29 1   
    15     7     8 1   
    16     8     9 1   
    17     8    10 1   
    18     8    30 1   
    19     9    12 1   
    20     9    31 1   
    21     9    32 1   
    22    10    11 1   
    23    10    33 1   
    24    11    12 1   
    25    12    13 1   
    26    12    21 1   
    27    13    14 1   
    28    14    15 1   
    29    14    17 1   
    30    14    34 1   
    31    15    16 1   
    32    15    35 1   
    33    15    36 1   
    34    16    37 1   
    35    17    18 1   
    36    17    19 1   
    37    17    38 1   
    38    18    39 1   
    39    19    20 1   
    40    19    21 1   
    41    19    40 1   
    42    20    41 1   
    43    21    22 1   
    44    21    42 1   
    45    22    43 1   
@<TRIPOS>SUBSTRUCTURE
     1 S13         1 TEMP              0 ****  ****    0 ROOT
