@<TRIPOS>MOLECULE
S13
   43    45     1     0     0
SMALL
abcg2


@<TRIPOS>ATOM
      1 C10         35.5150    25.0770    30.4990 ca         1 S13      -0.092500
      2 C11         36.2360    25.7690    31.4650 ca         1 S13      -0.109500
      3 C12         36.2020    25.3840    32.8060 ca         1 S13      -0.065300
      4 C15         36.9680    26.1440    33.8550 c3         1 S13      -0.048800
      5 C13         35.4200    24.2790    33.1490 ca         1 S13      -0.109500
      6 C14         34.6930    23.5900    32.1870 ca         1 S13      -0.092500
      7 C9          34.7310    23.9770    30.8480 ca         1 S13      -0.100300
      8 C8          33.9260    23.2220    29.8220 c5         1 S13       0.154800
      9 C7          34.6730    22.7530    28.5720 c5         1 S13      -0.103400
     10 N1          32.8440    24.0730    29.2790 n7         1 S13      -0.530900
     11 O7          32.5280    23.5020    27.9750 os         1 S13      -0.314300
     12 C1          33.5370    22.5540    27.5870 c5         1 S13       0.322000
     13 O5          33.0570    21.2360    27.7520 os         1 S13      -0.442000
     14 C5          31.8990    20.8990    26.9790 c6         1 S13       0.112300
     15 C6          31.4630    19.5020    27.3840 c3         1 S13       0.170600
     16 O6          32.4220    18.4880    27.0910 oh         1 S13      -0.710000
     17 C4          32.2310    21.0440    25.4950 c6         1 S13       0.095300
     18 O4          31.1250    20.7110    24.6580 oh         1 S13      -0.719000
     19 C3          32.7240    22.4570    25.2020 c6         1 S13       0.115300
     20 O3          33.1610    22.5740    23.8520 oh         1 S13      -0.641000
     21 C2          33.8870    22.8300    26.1140 c6         1 S13       0.163300
     22 O2          34.3010    24.1740    25.9330 oh         1 S13      -0.694000
     23 H10         35.5710    25.4030    29.4670 ha         1 S13       0.114500
     24 H11         36.8400    26.6190    31.1710 ha         1 S13       0.115000
     25 H151        37.7150    26.7960    33.4030 hc         1 S13       0.045367
     26 H152        36.2950    26.7680    34.4500 hc         1 S13       0.045367
     27 H153        37.4720    25.4640    34.5450 hc         1 S13       0.045367
     28 H13         35.3790    23.9540    34.1830 ha         1 S13       0.115000
     29 H14         34.0910    22.7370    32.4760 ha         1 S13       0.114500
     30 H8          33.4570    22.3630    30.3030 h1         1 S13       0.097700
     31 H71         35.2300    21.8310    28.7220 hc         1 S13       0.085200
     32 H72         35.3450    23.5290    28.2090 hc         1 S13       0.085200
     33 HN1         33.2610    24.9720    29.0370 hn         1 S13       0.392000
     34 H5          31.0790    21.5840    27.2320 h1         1 S13       0.058700
     35 H61         30.5040    19.2830    26.9080 h1         1 S13       0.057700
     36 H62         31.3190    19.4880    28.4650 h1         1 S13       0.057700
     37 HO6         32.3540    18.2580    26.1570 ho         1 S13       0.501000
     38 H4          33.0210    20.3370    25.2310 h1         1 S13       0.099700
     39 HO4         30.3820    21.2930    24.8750 ho         1 S13       0.504000
     40 H3          31.8950    23.1550    25.3860 h1         1 S13       0.041700
     41 HO3         32.4530    22.2230    23.2950 ho         1 S13       0.453000
     42 H2          34.7460    22.2080    25.8530 h1         1 S13       0.101700
     43 HO2         33.5880    24.7430    26.2560 ho         1 S13       0.508000
@<TRIPOS>BOND
     1     1     2 ar  
     2     1     7 ar  
     3     1    23 1   
     4     2     3 ar  
     5     2    24 1   
     6     3     4 1   
     7     3     5 ar  
     8     4    25 1   
     9     4    26 1   
    10     4    27 1   
    11     5     6 ar  
    12     5    28 1   
    13     6     7 ar  
    14     6    29 1   
    15     7     8 1   
    16     8     9 1   
    17     8    10 1   
    18     8    30 1   
    19     9    12 1   
    20     9    31 1   
    21     9    32 1   
    22    10    11 1   
    23    10    33 1   
    24    11    12 1   
    25    12    13 1   
    26    12    21 1   
    27    13    14 1   
    28    14    15 1   
    29    14    17 1   
    30    14    34 1   
    31    15    16 1   
    32    15    35 1   
    33    15    36 1   
    34    16    37 1   
    35    17    18 1   
    36    17    19 1   
    37    17    38 1   
    38    18    39 1   
    39    19    20 1   
    40    19    21 1   
    41    19    40 1   
    42    20    41 1   
    43    21    22 1   
    44    21    42 1   
    45    22    43 1   
@<TRIPOS>SUBSTRUCTURE
     1 S13         1 TEMP              0 ****  ****    0 ROOT
