@<TRIPOS>MOLECULE
S14
   56    59     1     0     0
SMALL
No Charge or Current Charge


@<TRIPOS>ATOM
      1 C1           6.9660    -0.4800     0.6110 cc         1 S14      -0.063000
      2 C2           6.4470    -1.3760    -0.3500 cc         1 S14      -0.093000
      3 C3           5.1060    -1.3150    -0.6400 cd         1 S14      -0.074000
      4 C4           4.2540    -0.3350     0.0240 cd         1 S14      -0.076000
      5 C5           4.7970     0.5210     1.0010 cc         1 S14      -0.066000
      6 N6           6.1680     0.4150     1.2440 na         1 S14       0.293400
      7 N7           6.8180     1.1880     2.1340 nc         1 S14      -0.601100
      8 C8           8.0580     0.7100     2.0040 cd         1 S14       0.532200
      9 N9           8.1860    -0.3220     1.0730 nd         1 S14      -0.397300
     10 C14          2.7910    -0.2860    -0.2660 ca         1 S14      -0.033000
     11 C15          2.2540    -0.8640    -1.4410 ca         1 S14      -0.098000
     12 C16          0.8770    -0.8150    -1.7150 ca         1 S14      -0.095500
     13 C17         -0.0130    -0.1880    -0.8250 ca         1 S14      -0.058300
     14 C18          0.5080     0.3920     0.3470 ca         1 S14      -0.095500
     15 C19          1.8860     0.3460     0.6210 ca         1 S14      -0.098000
     16 C24         -1.5160    -0.1250    -1.1430 c3         1 S14      -0.082400
     17 C25         -2.4040    -0.7770    -0.0390 c3         1 S14       0.115500
     18 C26         -3.9420    -0.6410    -0.3790 c          1 S14       0.574100
     19 N27         -4.8700    -0.6090     0.6850 n          1 S14      -0.404800
     20 C28         -1.9310     1.3540    -1.3740 c          1 S14       0.614100
     21 N30         -1.9490    -2.1940     0.2140 n8         1 S14      -1.000200
     22 O32         -4.3420    -0.5870    -1.5380 o          1 S14      -0.617100
     23 O33         -2.1400     2.0930    -0.4170 o          1 S14      -0.621100
     24 N34         -2.0360     1.8670    -2.6920 n          1 S14      -0.390800
     25 C35         -2.4860     3.2600    -2.9090 c3         1 S14       0.085300
     26 C39         -1.5540     1.1200    -3.8760 c3         1 S14       0.085300
     27 C43         -4.5040    -0.6440     2.1230 c5         1 S14       0.072000
     28 C44         -5.8830    -0.8780     2.7970 c5         1 S14       0.180300
     29 C45         -6.8260    -0.0720     1.8730 c5         1 S14      -0.127400
     30 C46         -6.3280    -0.4940     0.4660 c5         1 S14       0.101000
     31 F53         -5.9080    -0.3760     4.0990 f          1 S14      -0.254000
     32 H2           7.1030    -2.0950    -0.8330 ha         1 S14       0.149000
     33 H3           4.7100    -2.0230    -1.3570 ha         1 S14       0.130000
     34 H5           4.2760     1.2810     1.5640 h4         1 S14       0.165000
     35 H8           8.9110     1.0760     2.5640 h5         1 S14       0.071800
     36 H15          2.8940    -1.3350    -2.1790 ha         1 S14       0.116500
     37 H16          0.5050    -1.2680    -2.6320 ha         1 S14       0.121000
     38 H18         -0.1540     0.8840     1.0550 ha         1 S14       0.121000
     39 H19          2.2260     0.7900     1.5510 ha         1 S14       0.116500
     40 H24         -1.6790    -0.6830    -2.0690 hc         1 S14       0.086700
     41 H25         -2.2420    -0.2080     0.8870 h1         1 S14       0.086700
     42 H301        -2.5380    -2.6280     0.9350 hn         1 S14       0.408000
     43 H302        -2.1340    -2.7660    -0.6200 hn         1 S14       0.408000
     44 H351        -2.7460     3.4230    -3.9630 h1         1 S14       0.043200
     45 H352        -3.3740     3.4670    -2.2980 h1         1 S14       0.043200
     46 H353        -1.6850     3.9550    -2.6270 h1         1 S14       0.043200
     47 H391        -2.2330     0.2840    -4.0900 h1         1 S14       0.043200
     48 H392        -1.5160     1.7740    -4.7570 h1         1 S14       0.043200
     49 H393        -0.5440     0.7340    -3.6910 h1         1 S14       0.043200
     50 H431        -3.8040    -1.4540     2.3610 h1         1 S14       0.065200
     51 H432        -4.0610     0.3110     2.4370 h1         1 S14       0.065200
     52 H44         -6.1480    -1.9430     2.8190 h1         1 S14       0.060700
     53 H451        -6.7030     1.0060     2.0260 hc         1 S14       0.071200
     54 H452        -7.8830    -0.3100     2.0340 hc         1 S14       0.071200
     55 H461        -6.5810     0.2520    -0.2990 h1         1 S14       0.061700
     56 H462        -6.7490    -1.4620     0.1600 h1         1 S14       0.061700
@<TRIPOS>BOND
     1     1     2 1   
     2     1     6 1   
     3     1     9 2   
     4     2     3 2   
     5     2    32 1   
     6     3     4 1   
     7     3    33 1   
     8     4     5 2   
     9     4    10 1   
    10     5     6 1   
    11     5    34 1   
    12     6     7 1   
    13     7     8 2   
    14     8     9 1   
    15     8    35 1   
    16    10    11 ar  
    17    10    15 ar  
    18    11    12 ar  
    19    11    36 1   
    20    12    13 ar  
    21    12    37 1   
    22    13    14 ar  
    23    13    16 1   
    24    14    15 ar  
    25    14    38 1   
    26    15    39 1   
    27    16    17 1   
    28    16    20 1   
    29    16    40 1   
    30    17    18 1   
    31    17    21 1   
    32    17    41 1   
    33    18    19 1   
    34    18    22 2   
    35    19    27 1   
    36    19    30 1   
    37    20    23 2   
    38    20    24 1   
    39    21    42 1   
    40    21    43 1   
    41    24    25 1   
    42    24    26 1   
    43    25    44 1   
    44    25    45 1   
    45    25    46 1   
    46    26    47 1   
    47    26    48 1   
    48    26    49 1   
    49    27    28 1   
    50    27    50 1   
    51    27    51 1   
    52    28    29 1   
    53    28    31 1   
    54    28    52 1   
    55    29    30 1   
    56    29    53 1   
    57    29    54 1   
    58    30    55 1   
    59    30    56 1   
@<TRIPOS>SUBSTRUCTURE
     1 S14         1 TEMP              0 ****  ****    0 ROOT
