@<TRIPOS>MOLECULE
S14
   56    59     1     0     0
SMALL
abcg2


@<TRIPOS>ATOM
      1 C1           6.7440    -0.5170     0.6440 cc         1 S14      -0.063000
      2 C2           6.0940    -1.6860     0.2100 cc         1 S14      -0.093000
      3 C3           4.7620    -1.6220    -0.0760 cd         1 S14      -0.074000
      4 C4           4.0270    -0.4100     0.0550 cd         1 S14      -0.076000
      5 C5           4.6830     0.7120     0.4740 cc         1 S14      -0.066000
      6 N6           6.0040     0.6300     0.7580 na         1 S14       0.293400
      7 N7           6.7820     1.6370     1.1730 nc         1 S14      -0.601100
      8 C8           7.9570     1.0500     1.2940 cd         1 S14       0.532200
      9 N9           7.9980    -0.2530     0.9880 nd         1 S14      -0.397300
     10 C14          2.5870    -0.3570    -0.2560 ca         1 S14      -0.033000
     11 C15          2.0630    -1.0790    -1.3270 ca         1 S14      -0.098000
     12 C16          0.7110    -1.0220    -1.6250 ca         1 S14      -0.095500
     13 C17         -0.1590    -0.2440    -0.8690 ca         1 S14      -0.058300
     14 C18          0.3640     0.4740     0.2040 ca         1 S14      -0.095500
     15 C19          1.7140     0.4160     0.5090 ca         1 S14      -0.098000
     16 C24         -1.6340    -0.1990    -1.1870 c3         1 S14      -0.082400
     17 C25         -2.4420    -0.9770    -0.1410 c3         1 S14       0.115500
     18 C26         -3.9320    -0.8260    -0.4420 c          1 S14       0.574100
     19 N27         -4.7770    -0.7140     0.5920 n          1 S14      -0.404800
     20 C28         -2.1150     1.2470    -1.2430 c          1 S14       0.614100
     21 N30         -2.0350    -2.3700    -0.1670 n8         1 S14      -1.000200
     22 O32         -4.3370    -0.8790    -1.6000 o          1 S14      -0.617100
     23 O33         -2.7250     1.7210    -0.2900 o          1 S14      -0.621100
     24 N34         -1.8280     1.9680    -2.3440 n          1 S14      -0.390800
     25 C35         -2.1440     3.3830    -2.3680 c3         1 S14       0.085300
     26 C39         -0.9790     1.5100    -3.4240 c3         1 S14       0.085300
     27 C43         -4.4120    -0.6140     1.9950 c5         1 S14       0.072000
     28 C44         -5.7550    -0.7890     2.6920 c5         1 S14       0.180300
     29 C45         -6.7390    -0.1390     1.7420 c5         1 S14      -0.127400
     30 C46         -6.2190    -0.5840     0.3810 c5         1 S14       0.101000
     31 F53         -5.7470    -0.2010     3.9470 f          1 S14      -0.254000
     32 H2           6.6540    -2.6060     0.1200 ha         1 S14       0.149000
     33 H3           4.2470    -2.5180    -0.3940 ha         1 S14       0.130000
     34 H5           4.2290     1.6860     0.5860 h4         1 S14       0.165000
     35 H8           8.8230     1.6060     1.6200 h5         1 S14       0.071800
     36 H15          2.7140    -1.6780    -1.9510 ha         1 S14       0.116500
     37 H16          0.3310    -1.5850    -2.4680 ha         1 S14       0.121000
     38 H18         -0.2870     1.0790     0.8230 ha         1 S14       0.121000
     39 H19          2.0840     0.9640     1.3670 ha         1 S14       0.116500
     40 H24         -1.8010    -0.6840    -2.1510 hc         1 S14       0.086700
     41 H25         -2.2010    -0.5820     0.8460 h1         1 S14       0.086700
     42 H301        -2.4830    -2.8880     0.5790 hn         1 S14       0.408000
     43 H302        -2.3210    -2.8070    -1.0360 hn         1 S14       0.408000
     44 H351        -2.4120     3.6740    -3.3830 h1         1 S14       0.043200
     45 H352        -2.9800     3.6040    -1.7130 h1         1 S14       0.043200
     46 H353        -1.2880     3.9880    -2.0560 h1         1 S14       0.043200
     47 H391        -1.0600     0.4390    -3.5790 h1         1 S14       0.043200
     48 H392        -1.2940     1.9910    -4.3480 h1         1 S14       0.043200
     49 H393         0.0710     1.7560    -3.2520 h1         1 S14       0.043200
     50 H431        -3.6960    -1.3800     2.2920 h1         1 S14       0.065200
     51 H432        -3.9910     0.3690     2.2330 h1         1 S14       0.065200
     52 H44         -5.9840    -1.8490     2.8270 h1         1 S14       0.060700
     53 H451        -6.6710     0.9470     1.8380 hc         1 S14       0.071200
     54 H452        -7.7710    -0.4380     1.9140 hc         1 S14       0.071200
     55 H461        -6.4380     0.1390    -0.4040 h1         1 S14       0.061700
     56 H462        -6.6490    -1.5430     0.0790 h1         1 S14       0.061700
@<TRIPOS>BOND
     1     1     2 1   
     2     1     6 1   
     3     1     9 2   
     4     2     3 2   
     5     2    32 1   
     6     3     4 1   
     7     3    33 1   
     8     4     5 2   
     9     4    10 1   
    10     5     6 1   
    11     5    34 1   
    12     6     7 1   
    13     7     8 2   
    14     8     9 1   
    15     8    35 1   
    16    10    11 ar  
    17    10    15 ar  
    18    11    12 ar  
    19    11    36 1   
    20    12    13 ar  
    21    12    37 1   
    22    13    14 ar  
    23    13    16 1   
    24    14    15 ar  
    25    14    38 1   
    26    15    39 1   
    27    16    17 1   
    28    16    20 1   
    29    16    40 1   
    30    17    18 1   
    31    17    21 1   
    32    17    41 1   
    33    18    19 1   
    34    18    22 2   
    35    19    27 1   
    36    19    30 1   
    37    20    23 2   
    38    20    24 1   
    39    21    42 1   
    40    21    43 1   
    41    24    25 1   
    42    24    26 1   
    43    25    44 1   
    44    25    45 1   
    45    25    46 1   
    46    26    47 1   
    47    26    48 1   
    48    26    49 1   
    49    27    28 1   
    50    27    50 1   
    51    27    51 1   
    52    28    29 1   
    53    28    31 1   
    54    28    52 1   
    55    29    30 1   
    56    29    53 1   
    57    29    54 1   
    58    30    55 1   
    59    30    56 1   
@<TRIPOS>SUBSTRUCTURE
     1 S14         1 TEMP              0 ****  ****    0 ROOT
