@<TRIPOS>MOLECULE
S16
   30    31     1     0     0
SMALL
No Charge or Current Charge


@<TRIPOS>ATOM
      1 OAA         -6.3390    -1.9220     0.4660 o          1 S16      -0.715000
      2 CAO         -5.1210    -1.8140     0.4320 c          1 S16       0.711600
      3 OAC         -4.3690    -2.7680     0.5810 o          1 S16      -0.715000
      4 CAT         -4.5160    -0.4370     0.1940 ca         1 S16      -0.117600
      5 CAL         -3.1110    -0.2610     0.1470 ca         1 S16      -0.086000
      6 CAG         -5.3460     0.6940     0.0160 ca         1 S16      -0.098000
      7 CAE         -4.7870     1.9620    -0.2030 ca         1 S16      -0.127000
      8 CAF         -3.3950     2.1200    -0.2480 ca         1 S16      -0.185000
      9 CAS         -2.5440     1.0160    -0.0740 ca         1 S16      -0.066000
     10 NAN         -1.1420     1.2610    -0.1330 ns         1 S16      -0.158000
     11 CAP         -0.0360     0.4300    -0.0080 c          1 S16       0.656100
     12 OAB         -0.0960    -0.7770     0.1950 o          1 S16      -0.584100
     13 NAM          1.1470     1.1440    -0.1430 ns         1 S16      -0.173000
     14 CAR          2.5130     0.7550    -0.0950 ca         1 S16       0.016000
     15 CAJ          3.4810     1.7630    -0.2780 ca         1 S16      -0.148000
     16 CAH          4.8530     1.4570    -0.2440 ca         1 S16      -0.077000
     17 CAQ          5.2700     0.1350    -0.0270 ca         1 S16       0.081000
     18 Cl           6.9860    -0.2500     0.0160 cl         1 S16      -0.225000
     19 CAI          4.3180    -0.8790     0.1560 ca         1 S16      -0.077000
     20 CAK          2.9450    -0.5740     0.1230 ca         1 S16      -0.148000
     21 H2          -2.4750    -1.1300     0.2830 ha         1 S16       0.155000
     22 H3          -6.4290     0.5920     0.0470 ha         1 S16       0.130000
     23 H4          -5.4370     2.8240    -0.3390 ha         1 S16       0.087000
     24 H5          -2.9770     3.1100    -0.4180 ha         1 S16       0.079000
     25 H6          -0.9110     2.2320    -0.2990 hn         1 S16       0.130000
     26 H7           1.0140     2.1330    -0.3080 hn         1 S16       0.141000
     27 H8           3.1690     2.7920    -0.4470 ha         1 S16       0.132500
     28 H9           5.5910     2.2430    -0.3860 ha         1 S16       0.123000
     29 H10          4.6440    -1.9030     0.3250 ha         1 S16       0.123000
     30 H11          2.2380    -1.3830     0.2690 ha         1 S16       0.132500
@<TRIPOS>BOND
     1     1     2 1   
     2     2     3 1   
     3     2     4 1   
     4     4     5 ar  
     5     4     6 ar  
     6     5     9 ar  
     7     5    21 1   
     8     6     7 ar  
     9     6    22 1   
    10     7     8 ar  
    11     7    23 1   
    12     8     9 ar  
    13     8    24 1   
    14     9    10 1   
    15    10    11 1   
    16    10    25 1   
    17    11    12 2   
    18    11    13 1   
    19    13    14 1   
    20    13    26 1   
    21    14    15 ar  
    22    14    20 ar  
    23    15    16 ar  
    24    15    27 1   
    25    16    17 ar  
    26    16    28 1   
    27    17    18 1   
    28    17    19 ar  
    29    19    20 ar  
    30    19    29 1   
    31    20    30 1   
@<TRIPOS>SUBSTRUCTURE
     1 S16         1 TEMP              0 ****  ****    0 ROOT
