@<TRIPOS>MOLECULE
S16
   30    31     1     0     0
SMALL
abcg2


@<TRIPOS>ATOM
      1 OAA         -6.0270    -2.0900    -0.1660 o          1 S16      -0.715000
      2 CAO         -4.8060    -1.8940    -0.3110 c          1 S16       0.711600
      3 OAC         -3.9480    -2.7390    -0.6280 o          1 S16      -0.715000
      4 CAT         -4.3110    -0.4690    -0.0760 ca         1 S16      -0.117600
      5 CAL         -2.9590    -0.1730    -0.2180 ca         1 S16      -0.086000
      6 CAG         -5.2030     0.5440     0.2640 ca         1 S16      -0.098000
      7 CAE         -4.7420     1.8380     0.4580 ca         1 S16      -0.127000
      8 CAF         -3.3930     2.1290     0.3310 ca         1 S16      -0.185000
      9 CAS         -2.4900     1.1220    -0.0080 ca         1 S16      -0.066000
     10 NAN         -1.1470     1.4900    -0.1730 ns         1 S16      -0.158000
     11 CAP         -0.0530     0.7050     0.0570 c          1 S16       0.656100
     12 OAB         -0.1100    -0.4420     0.4610 o          1 S16      -0.584100
     13 NAM          1.1240     1.3560    -0.2180 ns         1 S16      -0.173000
     14 CAR          2.4120     0.8360    -0.1080 ca         1 S16       0.016000
     15 CAJ          3.4110     1.4320    -0.8820 ca         1 S16      -0.148000
     16 CAH          4.7240     1.0010    -0.8130 ca         1 S16      -0.077000
     17 CAQ          5.0530    -0.0450     0.0330 ca         1 S16       0.081000
     18 CL           6.6930    -0.6030     0.1170 cl         1 S16      -0.225000
     19 CAI          4.0790    -0.6450     0.8130 ca         1 S16      -0.077000
     20 CAK          2.7650    -0.2060     0.7510 ca         1 S16      -0.148000
     21 H2          -2.2840    -0.9650    -0.5020 ha         1 S16       0.155000
     22 H3          -6.2560     0.3220     0.3710 ha         1 S16       0.130000
     23 H4          -5.4330     2.6300     0.7180 ha         1 S16       0.087000
     24 H5          -3.0380     3.1400     0.4950 ha         1 S16       0.079000
     25 H6          -0.9900     2.4710    -0.3430 hn         1 S16       0.130000
     26 H7           1.0630     2.2350    -0.7120 hn         1 S16       0.141000
     27 H8           3.1620     2.2460    -1.5520 ha         1 S16       0.132500
     28 H9           5.4770     1.4770    -1.4250 ha         1 S16       0.123000
     29 H10          4.3330    -1.4560     1.4820 ha         1 S16       0.123000
     30 H11          2.0330    -0.6820     1.3830 ha         1 S16       0.132500
@<TRIPOS>BOND
     1     1     2 1   
     2     2     3 1   
     3     2     4 1   
     4     4     5 ar  
     5     4     6 ar  
     6     5     9 ar  
     7     5    21 1   
     8     6     7 ar  
     9     6    22 1   
    10     7     8 ar  
    11     7    23 1   
    12     8     9 ar  
    13     8    24 1   
    14     9    10 1   
    15    10    11 1   
    16    10    25 1   
    17    11    12 2   
    18    11    13 1   
    19    13    14 1   
    20    13    26 1   
    21    14    15 ar  
    22    14    20 ar  
    23    15    16 ar  
    24    15    27 1   
    25    16    17 ar  
    26    16    28 1   
    27    17    18 1   
    28    17    19 ar  
    29    19    20 ar  
    30    19    29 1   
    31    20    30 1   
@<TRIPOS>SUBSTRUCTURE
     1 S16         1 TEMP              0 ****  ****    0 ROOT
