@<TRIPOS>MOLECULE
S17
   51    51     1     0     0
SMALL
bcc


@<TRIPOS>ATOM
      1 CD1         -7.8040    -4.9680    34.4540 ca         1 S17      -0.123500
      2 CE1         -7.6750    -3.7130    35.0320 ca         1 S17      -0.100500
      3 CZ          -7.3720    -3.6230    36.3820 ca         1 S17      -0.015900
      4 BR1         -7.1930    -1.9210    37.1840 br         1 S17      -0.098100
      5 CE2         -7.2080    -4.7630    37.1540 ca         1 S17      -0.100500
      6 CD2         -7.3410    -6.0070    36.5560 ca         1 S17      -0.123500
      7 CG          -7.6350    -6.1310    35.2000 ca         1 S17      -0.074300
      8 CB          -7.7230    -7.4820    34.5530 c3         1 S17      -0.045100
      9 CA          -6.3410    -8.0160    34.1100 c3         1 S17       0.061700
     10 C           -5.6960    -7.0870    33.0990 c          1 S17       0.632100
     11 O           -4.6600    -6.4990    33.2770 o          1 S17      -0.533000
     12 OAT         -6.4290    -6.9890    32.0070 os         1 S17      -0.414900
     13 CAA         -5.9730    -6.1040    30.9800 c3         1 S17       0.126700
     14 N           -5.4400    -8.1930    35.2150 ns         1 S17      -0.571900
     15 CAV         -5.4210    -9.3030    35.9770 c          1 S17       0.668100
     16 OAC         -6.1550   -10.2580    35.7670 o          1 S17      -0.606100
     17 CAP         -4.4370    -9.2760    37.1240 c3         1 S17      -0.156400
     18 CAN         -3.6040   -10.5530    37.2030 c3         1 S17      -0.065400
     19 CAL         -2.5930   -10.5300    38.3460 c3         1 S17      -0.077400
     20 CAK         -3.1990   -10.3360    39.7360 c3         1 S17      -0.076400
     21 CAM         -4.2750   -11.3470    40.1190 c3         1 S17      -0.069400
     22 CAO         -3.7580   -12.7840    40.1480 c3         1 S17      -0.158400
     23 CAU         -4.8070   -13.7500    40.6450 c          1 S17       0.668100
     24 OAB         -5.4320   -13.5830    41.6780 o          1 S17      -0.572100
     25 NAR         -4.9610   -14.8310    39.8560 ns         1 S17      -0.458400
     26 OAE         -5.9700   -15.7140    40.0960 oh         1 S17      -0.384100
     27 HD1         -8.0550    -5.0310    33.4020 ha         1 S17       0.135500
     28 HE1         -7.8160    -2.8260    34.4290 ha         1 S17       0.148000
     29 HE2         -6.9850    -4.6950    38.2110 ha         1 S17       0.148000
     30 HD2         -7.2250    -6.8940    37.1670 ha         1 S17       0.135500
     31 HBC1        -8.1440    -8.2110    35.2470 hc         1 S17       0.073700
     32 HBC2        -8.3870    -7.4540    33.6890 hc         1 S17       0.073700
     33 HA          -6.5000    -8.9830    33.6250 h1         1 S17       0.103700
     34 H           -4.8020    -7.4430    35.4300 hn         1 S17       0.337500
     35 HAA1        -6.7280    -6.1400    30.2010 h1         1 S17       0.052033
     36 HAA2        -5.8810    -5.0830    31.3500 h1         1 S17       0.052033
     37 HAA3        -5.0150    -6.4290    30.5750 h1         1 S17       0.052033
     38 HAP1        -3.7810    -8.4050    37.0540 hc         1 S17       0.060700
     39 HAP2        -5.0200    -9.1500    38.0420 hc         1 S17       0.060700
     40 HAN1        -4.2680   -11.4150    37.3000 hc         1 S17       0.052200
     41 HAN2        -3.0660   -10.6880    36.2610 hc         1 S17       0.052200
     42 HAL1        -2.0150   -11.4590    38.3190 hc         1 S17       0.039700
     43 HAL2        -1.8690    -9.7290    38.1690 hc         1 S17       0.039700
     44 HAK1        -2.3940   -10.3740    40.4750 hc         1 S17       0.041700
     45 HAK2        -3.6240    -9.3320    39.8130 hc         1 S17       0.041700
     46 HAM1        -4.6660   -11.0890    41.1050 hc         1 S17       0.057700
     47 HAM2        -5.1220   -11.2800    39.4290 hc         1 S17       0.057700
     48 HAO1        -3.3900   -13.0790    39.1630 hc         1 S17       0.058700
     49 HAO2        -2.9030   -12.8490    40.8280 hc         1 S17       0.058700
     50 HAR         -4.5630   -14.8850    38.9300 hn         1 S17       0.334500
     51 HAE         -5.5770   -16.4430    40.5920 ho         1 S17       0.404000
@<TRIPOS>BOND
     1     1     2 ar  
     2     1     7 ar  
     3     1    27 1   
     4     2     3 ar  
     5     2    28 1   
     6     3     4 1   
     7     3     5 ar  
     8     5     6 ar  
     9     5    29 1   
    10     6     7 ar  
    11     6    30 1   
    12     7     8 1   
    13     8     9 1   
    14     8    31 1   
    15     8    32 1   
    16     9    10 1   
    17     9    14 1   
    18     9    33 1   
    19    10    11 2   
    20    10    12 1   
    21    12    13 1   
    22    13    35 1   
    23    13    36 1   
    24    13    37 1   
    25    14    15 1   
    26    14    34 1   
    27    15    16 2   
    28    15    17 1   
    29    17    18 1   
    30    17    38 1   
    31    17    39 1   
    32    18    19 1   
    33    18    40 1   
    34    18    41 1   
    35    19    20 1   
    36    19    42 1   
    37    19    43 1   
    38    20    21 1   
    39    20    44 1   
    40    20    45 1   
    41    21    22 1   
    42    21    46 1   
    43    21    47 1   
    44    22    23 1   
    45    22    48 1   
    46    22    49 1   
    47    23    24 2   
    48    23    25 1   
    49    25    26 1   
    50    25    50 1   
    51    26    51 1   
@<TRIPOS>SUBSTRUCTURE
     1 S17         1 TEMP              0 ****  ****    0 ROOT
