@<TRIPOS>MOLECULE
S17
   51    51     1     0     0
SMALL
No Charge or Current Charge


@<TRIPOS>ATOM
      1 CD1         -7.4830    -4.7870    34.4660 ca         1 S17      -0.105500
      2 CE1         -7.3020    -3.5750    35.1540 ca         1 S17      -0.082500
      3 CZ          -7.2770    -3.5630    36.5580 ca         1 S17      -0.015900
      4 Br1         -7.0290    -1.9140    37.4940 br         1 S17      -0.098100
      5 CE2         -7.4360    -4.7590    37.2760 ca         1 S17      -0.082500
      6 CD2         -7.6170    -5.9710    36.5870 ca         1 S17      -0.105500
      7 CG          -7.6380    -5.9930    35.1780 ca         1 S17      -0.074300
      8 CB          -7.8240    -7.3100    34.4300 c3         1 S17      -0.045100
      9 CA          -6.4830    -7.9970    34.0580 c3         1 S17       0.061700
     10 C           -5.7200    -7.2160    32.9540 c          1 S17       0.583100
     11 O           -4.6380    -6.6650    33.1240 o          1 S17      -0.484000
     12 OAT         -6.3730    -7.2700    31.7480 os         1 S17      -0.438100
     13 CAA         -5.7760    -6.5990    30.6230 c3         1 S17       0.149900
     14 N           -5.6160    -8.2110    35.2420 ns         1 S17      -0.504900
     15 CAV         -5.8340    -9.1520    36.2200 c          1 S17       0.601100
     16 OAC         -6.7690    -9.9370    36.1740 o          1 S17      -0.606100
     17 CAP         -4.8400    -9.1180    37.3840 c3         1 S17      -0.156400
     18 CAN         -3.8560   -10.3120    37.3250 c3         1 S17      -0.065400
     19 CAL         -2.7420   -10.2740    38.4020 c3         1 S17      -0.077400
     20 CAK         -3.2270   -10.2880    39.8760 c3         1 S17      -0.076400
     21 CAM         -4.1110   -11.4930    40.2840 c3         1 S17      -0.069400
     22 CAO         -3.4190   -12.8720    40.1390 c3         1 S17      -0.158400
     23 CAU         -4.3000   -14.0060    40.6790 c          1 S17       0.601100
     24 OAB         -4.4640   -14.1950    41.8780 o          1 S17      -0.572100
     25 NAR         -4.8600   -14.8300    39.7090 ns         1 S17      -0.391400
     26 OAE         -5.8990   -15.7820    40.0470 oh         1 S17      -0.423100
     27 HD1         -7.5020    -4.7870    33.3780 ha         1 S17       0.117500
     28 HE1         -7.1810    -2.6470    34.5980 ha         1 S17       0.130000
     29 HE2         -7.4180    -4.7490    38.3640 ha         1 S17       0.130000
     30 HD2         -7.7380    -6.8940    37.1500 ha         1 S17       0.117500
     31 HBC1        -8.4170    -8.0020    35.0410 hc         1 S17       0.073700
     32 HBC2        -8.4150    -7.1490    33.5200 hc         1 S17       0.073700
     33 HA          -6.7150    -8.9760    33.6190 h1         1 S17       0.103700
     34 H           -4.8140    -7.6020    35.3630 hn         1 S17       0.337500
     35 HAA1        -6.4020    -6.7190    29.7300 h1         1 S17       0.052033
     36 HAA2        -5.6690    -5.5240    30.8210 h1         1 S17       0.052033
     37 HAA3        -4.7840    -7.0120    30.4010 h1         1 S17       0.052033
     38 HAP1        -4.2610    -8.1880    37.3550 hc         1 S17       0.060700
     39 HAP2        -5.4070    -9.1720    38.3210 hc         1 S17       0.060700
     40 HAN1        -4.4140   -11.2530    37.4030 hc         1 S17       0.052200
     41 HAN2        -3.3760   -10.3230    36.3380 hc         1 S17       0.052200
     42 HAL1        -2.0640   -11.1200    38.2370 hc         1 S17       0.039700
     43 HAL2        -2.1370    -9.3720    38.2460 hc         1 S17       0.039700
     44 HAK1        -2.3460   -10.2630    40.5290 hc         1 S17       0.041700
     45 HAK2        -3.7770    -9.3620    40.0810 hc         1 S17       0.041700
     46 HAM1        -4.4080   -11.3560    41.3320 hc         1 S17       0.057700
     47 HAM2        -5.0410   -11.4860    39.7020 hc         1 S17       0.057700
     48 HAO1        -3.1990   -13.0480    39.0800 hc         1 S17       0.058700
     49 HAO2        -2.4850   -12.8540    40.7140 hc         1 S17       0.058700
     50 HAR         -4.8050   -14.5530    38.7300 hn         1 S17       0.334500
     51 HAE         -5.5860   -16.6230    39.6360 ho         1 S17       0.443000
@<TRIPOS>BOND
     1     1     2 ar  
     2     1     7 ar  
     3     1    27 1   
     4     2     3 ar  
     5     2    28 1   
     6     3     4 1   
     7     3     5 ar  
     8     5     6 ar  
     9     5    29 1   
    10     6     7 ar  
    11     6    30 1   
    12     7     8 1   
    13     8     9 1   
    14     8    31 1   
    15     8    32 1   
    16     9    10 1   
    17     9    14 1   
    18     9    33 1   
    19    10    11 2   
    20    10    12 1   
    21    12    13 1   
    22    13    35 1   
    23    13    36 1   
    24    13    37 1   
    25    14    15 1   
    26    14    34 1   
    27    15    16 2   
    28    15    17 1   
    29    17    18 1   
    30    17    38 1   
    31    17    39 1   
    32    18    19 1   
    33    18    40 1   
    34    18    41 1   
    35    19    20 1   
    36    19    42 1   
    37    19    43 1   
    38    20    21 1   
    39    20    44 1   
    40    20    45 1   
    41    21    22 1   
    42    21    46 1   
    43    21    47 1   
    44    22    23 1   
    45    22    48 1   
    46    22    49 1   
    47    23    24 2   
    48    23    25 1   
    49    25    26 1   
    50    25    50 1   
    51    26    51 1   
@<TRIPOS>SUBSTRUCTURE
     1 S17         1 TEMP              0 ****  ****    0 ROOT
