@<TRIPOS>MOLECULE
S19
   47    49     1     0     0
SMALL
No Charge or Current Charge


@<TRIPOS>ATOM
      1 C1          -4.3640     5.0050    -0.1110 c3         1 S19      -0.039800
      2 C2          -3.8260     3.5830    -0.0750 ca         1 S19      -0.102300
      3 C3          -4.6040     2.5170    -0.5620 ca         1 S19      -0.089000
      4 C4          -4.1030     1.2030    -0.5290 ca         1 S19      -0.141500
      5 C5          -2.8190     0.9360    -0.0230 ca         1 S19       0.304000
      6 N6          -2.3810    -0.3910    -0.0030 nu         1 S19      -0.927900
      7 C7          -1.1600    -1.0400     0.0120 ca         1 S19       0.471900
      8 N8          -0.0610    -0.2820    -0.0940 nb         1 S19      -0.339000
      9 C9           1.1110    -0.9190    -0.0830 ca         1 S19       0.435900
     10 N10          2.2140    -0.0910    -0.1950 nu         1 S19      -0.899100
     11 C11          3.6020    -0.5150    -0.4650 c6         1 S19       0.252500
     12 C12          4.2900    -1.0960     0.8010 c6         1 S19      -0.121400
     13 C13          4.6580     0.0110     1.8110 c6         1 S19       0.151600
     14 O14          5.4840     1.0010     1.1650 os         1 S19      -0.447000
     15 C15          4.8170     1.6950     0.0880 c6         1 S19       0.155600
     16 C16          4.4120     0.7040    -1.0490 c6         1 S19       0.105500
     17 N17          3.6690     1.4140    -2.1450 n8         1 S19      -1.012200
     18 N18          1.3030    -2.2430     0.0090 nb         1 S19      -0.291000
     19 C19          0.1990    -3.0010     0.1000 ca         1 S19       0.204900
     20 C20         -1.0930    -2.4410     0.1000 ca         1 S19      -0.403600
     21 C21         -2.3080    -3.3120     0.1780 c          1 S19       0.652700
     22 N22         -2.1230    -4.6330     0.3430 nt         1 S19      -0.592000
     23 O23         -3.4460    -2.8840     0.0840 o          1 S19      -0.656100
     24 C24         -2.0480     2.0050     0.4760 ca         1 S19      -0.141500
     25 C25         -2.5460     3.3200     0.4450 ca         1 S19      -0.089000
     26 H1          -4.0930     5.5020    -1.0500 hc         1 S19       0.039033
     27 H1A         -5.4580     5.0220    -0.0270 hc         1 S19       0.039033
     28 H1B         -3.9630     5.6060     0.7140 hc         1 S19       0.039033
     29 H3          -5.5970     2.7040    -0.9650 ha         1 S19       0.109000
     30 H4          -4.7160     0.3900    -0.9080 ha         1 S19       0.132000
     31 HN6         -3.1370    -1.0840    -0.0570 hn         1 S19       0.548000
     32 HN10         1.9840     0.8380    -0.5490 hn         1 S19       0.523000
     33 H11          3.5880    -1.2980    -1.2390 h1         1 S19       0.059700
     34 H12          3.6570    -1.8490     1.2850 hc         1 S19       0.066700
     35 H12A         5.2080    -1.6180     0.5010 hc         1 S19       0.066700
     36 H13          3.7500     0.4910     2.2060 h1         1 S19       0.052700
     37 H13A         5.2110    -0.4210     2.6560 h1         1 S19       0.052700
     38 H15          3.9270     2.2040     0.4860 h1         1 S19       0.052700
     39 H15A         5.4950     2.4630    -0.3100 h1         1 S19       0.052700
     40 H16          5.3380     0.3080    -1.4930 h1         1 S19       0.041700
     41 HN17         4.3080     2.0640    -2.6200 hn         1 S19       0.406000
     42 HN1A         3.4340     0.7370    -2.8820 hn         1 S19       0.406000
     43 H19          0.3690    -4.0740     0.1640 h4         1 S19       0.005100
     44 HN22        -1.1920    -5.0100     0.4230 hn         1 S19       0.313500
     45 HN2A        -2.9300    -5.2370     0.3930 hn         1 S19       0.313500
     46 H24         -1.0700     1.8280     0.9070 ha         1 S19       0.132000
     47 H25         -1.9370     4.1340     0.8330 ha         1 S19       0.109000
@<TRIPOS>BOND
     1     1     2 1   
     2     1    26 1   
     3     1    27 1   
     4     1    28 1   
     5     2     3 ar  
     6     2    25 ar  
     7     3     4 ar  
     8     3    29 1   
     9     4     5 ar  
    10     4    30 1   
    11     5     6 1   
    12     5    24 ar  
    13     6     7 1   
    14     6    31 1   
    15     7     8 ar  
    16     7    20 ar  
    17     8     9 ar  
    18     9    10 1   
    19     9    18 ar  
    20    10    11 1   
    21    10    32 1   
    22    11    12 1   
    23    11    16 1   
    24    11    33 1   
    25    12    13 1   
    26    12    34 1   
    27    12    35 1   
    28    13    14 1   
    29    13    36 1   
    30    13    37 1   
    31    14    15 1   
    32    15    16 1   
    33    15    38 1   
    34    15    39 1   
    35    16    17 1   
    36    16    40 1   
    37    17    41 1   
    38    17    42 1   
    39    18    19 ar  
    40    19    20 ar  
    41    19    43 1   
    42    20    21 1   
    43    21    22 1   
    44    21    23 2   
    45    22    44 1   
    46    22    45 1   
    47    24    25 ar  
    48    24    46 1   
    49    25    47 1   
@<TRIPOS>SUBSTRUCTURE
     1 S19         1 TEMP              0 ****  ****    0 ROOT
