@<TRIPOS>MOLECULE
S19
   47    49     1     0     0
SMALL
bcc


@<TRIPOS>ATOM
      1 C1          -4.2950     4.9670    -0.2390 c3         1 S19      -0.039800
      2 C2          -3.7530     3.5700    -0.1480 ca         1 S19      -0.102300
      3 C3          -4.6060     2.4670    -0.0930 ca         1 S19      -0.107000
      4 C4          -4.1110     1.1790    -0.0330 ca         1 S19      -0.159500
      5 C5          -2.7320     0.9310    -0.0250 ca         1 S19       0.165600
      6 N6          -2.3560    -0.4100     0.0390 nu         1 S19      -0.734300
      7 C7          -1.1470    -1.0010    -0.0080 ca         1 S19       0.800200
      8 N8          -0.0610    -0.2550    -0.1080 nb         1 S19      -0.865000
      9 C9           1.1280    -0.8590    -0.1720 ca         1 S19       0.961900
     10 N10          2.1930    -0.0500    -0.2490 nu         1 S19      -0.843900
     11 C11          3.5500    -0.4850    -0.5180 c6         1 S19       0.252500
     12 C12          4.2090    -1.1500     0.6920 c6         1 S19      -0.121400
     13 C13          4.4690    -0.1520     1.8040 c6         1 S19       0.128400
     14 O14          5.2560     0.9320     1.3540 os         1 S19      -0.400600
     15 C15          4.6350     1.6330     0.3060 c6         1 S19       0.132400
     16 C16          4.3790     0.7460    -0.9120 c6         1 S19       0.105500
     17 N17          3.6800     1.5300    -1.9140 n8         1 S19      -0.901800
     18 N18          1.3310    -2.1830    -0.1680 nb         1 S19      -0.817000
     19 C19          0.2420    -2.9200    -0.0610 ca         1 S19       0.533200
     20 C20         -1.0510    -2.4310     0.0460 ca         1 S19      -0.534200
     21 C21         -2.2320    -3.3040     0.1800 c          1 S19       0.719700
     22 N22         -2.0360    -4.6280     0.2890 nt         1 S19      -0.659000
     23 O23         -3.3800    -2.8460     0.1800 o          1 S19      -0.656100
     24 C24         -1.8690     2.0270    -0.0730 ca         1 S19      -0.159500
     25 C25         -2.3880     3.3150    -0.1330 ca         1 S19      -0.107000
     26 H1          -4.7080     5.1680    -1.2290 hc         1 S19       0.039033
     27 H1A         -5.0970     5.1350     0.4820 hc         1 S19       0.039033
     28 H1B         -3.5190     5.7080    -0.0530 hc         1 S19       0.039033
     29 H3          -5.6790     2.6140    -0.0960 ha         1 S19       0.127000
     30 H4          -4.8060     0.3480     0.0070 ha         1 S19       0.150000
     31 HN6         -3.1150    -1.0880     0.0920 hn         1 S19       0.492800
     32 HN10         1.9890     0.9130    -0.4740 hn         1 S19       0.467800
     33 H11          3.5480    -1.1920    -1.3550 h1         1 S19       0.059700
     34 H12          3.5880    -1.9680     1.0580 hc         1 S19       0.066700
     35 H12A         5.1560    -1.5930     0.3690 hc         1 S19       0.066700
     36 H13          3.5180     0.2120     2.2200 h1         1 S19       0.052700
     37 H13A         5.0180    -0.6260     2.6190 h1         1 S19       0.052700
     38 H15          3.6890     2.0850     0.6400 h1         1 S19       0.052700
     39 H15A         5.3010     2.4540     0.0300 h1         1 S19       0.052700
     40 H16          5.3500     0.3620    -1.2580 h1         1 S19       0.041700
     41 HN17         4.2380     2.3350    -2.1740 hn         1 S19       0.350800
     42 HN1A         3.5670     0.9860    -2.7610 hn         1 S19       0.350800
     43 H19          0.4240    -3.9900    -0.0740 h4         1 S19       0.005100
     44 HN22        -1.1380    -5.0480     0.4510 hn         1 S19       0.313500
     45 HN2A        -2.8360    -5.2170     0.4510 hn         1 S19       0.313500
     46 H24         -0.8020     1.8830    -0.0640 ha         1 S19       0.150000
     47 H25         -1.6910     4.1440    -0.1680 ha         1 S19       0.127000
@<TRIPOS>BOND
     1     1     2 1   
     2     1    26 1   
     3     1    27 1   
     4     1    28 1   
     5     2     3 ar  
     6     2    25 ar  
     7     3     4 ar  
     8     3    29 1   
     9     4     5 ar  
    10     4    30 1   
    11     5     6 1   
    12     5    24 ar  
    13     6     7 1   
    14     6    31 1   
    15     7     8 ar  
    16     7    20 ar  
    17     8     9 ar  
    18     9    10 1   
    19     9    18 ar  
    20    10    11 1   
    21    10    32 1   
    22    11    12 1   
    23    11    16 1   
    24    11    33 1   
    25    12    13 1   
    26    12    34 1   
    27    12    35 1   
    28    13    14 1   
    29    13    36 1   
    30    13    37 1   
    31    14    15 1   
    32    15    16 1   
    33    15    38 1   
    34    15    39 1   
    35    16    17 1   
    36    16    40 1   
    37    17    41 1   
    38    17    42 1   
    39    18    19 ar  
    40    19    20 ar  
    41    19    43 1   
    42    20    21 1   
    43    21    22 1   
    44    21    23 2   
    45    22    44 1   
    46    22    45 1   
    47    24    25 ar  
    48    24    46 1   
    49    25    47 1   
@<TRIPOS>SUBSTRUCTURE
     1 S19         1 TEMP              0 ****  ****    0 ROOT
