@<TRIPOS>MOLECULE
S1A
   81    83     1     0     0
SMALL
No Charge or Current Charge


@<TRIPOS>ATOM
      1 C1          -2.8640   -15.3210    -2.7470 c          1 S1A       0.609100
      2 C2          -1.8930   -14.2820    -3.3230 c3         1 S1A      -0.090700
      3 C3          -1.8640   -12.9620    -2.4870 c6         1 S1A       0.415000
      4 C4          -0.7160   -11.9830    -2.9450 c6         1 S1A       0.117300
      5 C5          -0.6550   -10.7730    -1.9490 c6         1 S1A       0.135300
      6 C6          -0.5070   -11.2530    -0.4710 c6         1 S1A      -0.110700
      7 C7          -1.6670   -12.2510    -0.1350 c6         1 S1A       0.179300
      8 C8          -1.6330   -12.8800     1.3030 c3         1 S1A      -0.018500
      9 C9          -2.8100   -13.8280     1.5270 c2         1 S1A      -0.197200
     10 C10         -3.8800   -13.6320     2.3230 c2         1 S1A      -0.246200
     11 C11         -5.0470   -14.5920     2.4740 c3         1 S1A       0.180500
     12 C12         -6.4400   -13.9380     2.1400 c3         1 S1A       0.183300
     13 C13         -6.5880   -13.5430     0.6460 c3         1 S1A      -0.078400
     14 C14         -6.4680   -14.7140    -0.3560 c3         1 S1A      -0.076400
     15 C15         -6.6900   -14.2780    -1.8230 c3         1 S1A      -0.074400
     16 C16         -6.5380   -15.4240    -2.8570 c3         1 S1A      -0.066400
     17 C17         -5.1480   -16.1090    -2.8690 c3         1 S1A       0.217600
     18 C19         -2.1170   -14.0870    -4.8500 c3         1 S1A      -0.079100
     19 C21          0.9150   -11.8260    -0.1690 c3         1 S1A      -0.079100
     20 C22         -1.5320   -11.8240     2.4360 c3         1 S1A      -0.092100
     21 C25         -5.0370   -17.1880    -3.9470 ca         1 S1A      -0.110300
     22 C26         -5.0310   -16.8420    -5.3150 ca         1 S1A      -0.090500
     23 C27         -4.9230   -17.8390    -6.3000 ca         1 S1A      -0.114500
     24 C28         -4.8200   -19.1890    -5.9260 ca         1 S1A      -0.105000
     25 C29         -4.8240   -19.5410    -4.5660 ca         1 S1A      -0.114500
     26 C30         -4.9310   -18.5450    -3.5810 ca         1 S1A      -0.090500
     27 O1          -2.4820   -16.3610    -2.2220 o          1 S1A      -0.487000
     28 O3          -3.1140   -12.2900    -2.5820 oh         1 S1A      -0.727000
     29 O4           0.5600   -12.6690    -3.0840 os         1 S1A      -0.443000
     30 O5          -1.8630    -9.9930    -2.0640 oh         1 S1A      -0.747000
     31 O7          -1.6790   -13.3390    -1.1020 os         1 S1A      -0.465000
     32 O11         -5.0550   -15.1160     3.8200 os         1 S1A      -0.470000
     33 O12         -6.6590   -12.7010     2.8750 os         1 S1A      -0.470000
     34 O18         -4.1640   -15.0930    -3.1270 os         1 S1A      -0.434100
     35 H2          -0.9070   -14.7450    -3.2140 hc         1 S1A       0.103700
     36 H4          -0.9830   -11.5900    -3.9370 h1         1 S1A       0.065700
     37 H5           0.2050   -10.1380    -2.2070 h1         1 S1A       0.049700
     38 H6          -0.6070   -10.3690     0.1720 hc         1 S1A       0.045700
     39 H7          -2.6230   -11.7100    -0.2020 h1         1 S1A       0.045700
     40 H8          -0.7240   -13.4890     1.3800 hc         1 S1A       0.069700
     41 H9          -2.7380   -14.7450     0.9390 ha         1 S1A       0.188000
     42 H10         -3.9940   -12.7240     2.9140 ha         1 S1A       0.185000
     43 H11         -4.9010   -15.4330     1.7850 h1         1 S1A       0.042700
     44 H12         -7.2300   -14.6640     2.3770 h1         1 S1A       0.043700
     45 H131        -5.8330   -12.7860     0.3990 hc         1 S1A       0.054700
     46 H132        -7.5670   -13.0660     0.5100 hc         1 S1A       0.054700
     47 H141        -7.1910   -15.4980    -0.0940 hc         1 S1A       0.038200
     48 H142        -5.4670   -15.1500    -0.2680 hc         1 S1A       0.038200
     49 H151        -5.9870   -13.4730    -2.0700 hc         1 S1A       0.052200
     50 H152        -7.6950   -13.8510    -1.9200 hc         1 S1A       0.052200
     51 H161        -6.7510   -15.0230    -3.8550 hc         1 S1A       0.051200
     52 H162        -7.3020   -16.1850    -2.6600 hc         1 S1A       0.051200
     53 H17         -4.9860   -16.5680    -1.8850 h1         1 S1A       0.069700
     54 H191        -1.3090   -13.4960    -5.2960 hc         1 S1A       0.046033
     55 H192        -3.0670   -13.5770    -5.0530 hc         1 S1A       0.046033
     56 H193        -2.1390   -15.0580    -5.3600 hc         1 S1A       0.046033
     57 H201         2.5100   -12.6050    -3.8310 h1         1 S1A       0.035367
     58 H202         1.9460   -11.0870    -3.1110 h1         1 S1A       0.035367
     59 H203         1.3410   -11.5960    -4.7080 h1         1 S1A       0.035367
     60 H211         1.0970   -11.9100     0.9080 hc         1 S1A       0.044033
     61 H212         1.7000   -11.1750    -0.5710 hc         1 S1A       0.044033
     62 H213         1.0560   -12.8260    -0.5940 hc         1 S1A       0.044033
     63 H221        -1.5650   -12.3080     3.4190 hc         1 S1A       0.038033
     64 H222        -2.3570   -11.1040     2.3750 hc         1 S1A       0.038033
     65 H223        -0.5930   -11.2630     2.3830 hc         1 S1A       0.038033
     66 H231        -4.0480   -16.3300     5.1920 h1         1 S1A       0.030700
     67 H232        -2.9920   -15.3510     4.1550 h1         1 S1A       0.030700
     68 H233        -3.8210   -16.7810     3.4890 h1         1 S1A       0.030700
     69 H241        -7.2270   -11.8590     4.7000 h1         1 S1A       0.032367
     70 H242        -5.8970   -13.0190     4.8110 h1         1 S1A       0.032367
     71 H243        -7.5670   -13.5960     4.5460 h1         1 S1A       0.032367
     72 H26         -5.1060   -15.7990    -5.6160 ha         1 S1A       0.117000
     73 H27         -4.9180   -17.5650    -7.3530 ha         1 S1A       0.112000
     74 H28         -4.7360   -19.9610    -6.6890 ha         1 S1A       0.111000
     75 H29         -4.7430   -20.5860    -4.2760 ha         1 S1A       0.112000
     76 H30         -4.9310   -18.8300    -2.5300 ha         1 S1A       0.117000
     77 H3          -2.8510   -11.3530    -2.3620 ho         1 S1A       0.533000
     78 HA          -1.6500    -9.0820    -1.7420 ho         1 S1A       0.517000
     79 C20          1.6380   -11.9510    -3.7130 c3         1 S1A       0.140900
     80 C23         -3.9230   -15.9320     4.1770 c3         1 S1A       0.146900
     81 C24         -6.8440   -12.8070     4.3000 c3         1 S1A       0.151900
@<TRIPOS>BOND
     1     1     2 1   
     2     1    27 2   
     3     1    34 1   
     4     2     3 1   
     5     2    18 1   
     6     2    35 1   
     7     3     4 1   
     8     3    28 1   
     9     3    31 1   
    10     4     5 1   
    11     4    29 1   
    12     4    36 1   
    13     5     6 1   
    14     5    30 1   
    15     5    37 1   
    16     6     7 1   
    17     6    19 1   
    18     6    38 1   
    19     7     8 1   
    20     7    31 1   
    21     7    39 1   
    22     8     9 1   
    23     8    20 1   
    24     8    40 1   
    25     9    10 2   
    26     9    41 1   
    27    10    11 1   
    28    10    42 1   
    29    11    12 1   
    30    11    32 1   
    31    11    43 1   
    32    12    13 1   
    33    12    33 1   
    34    12    44 1   
    35    13    14 1   
    36    13    45 1   
    37    13    46 1   
    38    14    15 1   
    39    14    47 1   
    40    14    48 1   
    41    15    16 1   
    42    15    49 1   
    43    15    50 1   
    44    16    17 1   
    45    16    51 1   
    46    16    52 1   
    47    17    21 1   
    48    17    34 1   
    49    17    53 1   
    50    18    54 1   
    51    18    55 1   
    52    18    56 1   
    53    19    60 1   
    54    19    61 1   
    55    19    62 1   
    56    20    63 1   
    57    20    64 1   
    58    20    65 1   
    59    21    22 ar  
    60    21    26 ar  
    61    22    23 ar  
    62    22    72 1   
    63    23    24 ar  
    64    23    73 1   
    65    24    25 ar  
    66    24    74 1   
    67    25    26 ar  
    68    25    75 1   
    69    26    76 1   
    70    28    77 1   
    71    29    79 1   
    72    30    78 1   
    73    32    80 1   
    74    33    81 1   
    75    57    79 1   
    76    58    79 1   
    77    59    79 1   
    78    66    80 1   
    79    67    80 1   
    80    68    80 1   
    81    69    81 1   
    82    70    81 1   
    83    71    81 1   
@<TRIPOS>SUBSTRUCTURE
     1 S1A         1 TEMP              0 ****  ****    0 ROOT
