@<TRIPOS>MOLECULE
S1A
   81    83     1     0     0
SMALL
abcg2


@<TRIPOS>ATOM
      1 C1          -2.7810   -15.2530    -2.7510 c          1 S1A       0.609100
      2 C2          -1.8070   -14.2110    -3.2730 c3         1 S1A      -0.090700
      3 C3          -1.8570   -12.9090    -2.4490 c6         1 S1A       0.415000
      4 C4          -0.7680   -11.9080    -2.9040 c6         1 S1A       0.117300
      5 C5          -0.6360   -10.7630    -1.8880 c6         1 S1A       0.135300
      6 C6          -0.5080   -11.2530    -0.4390 c6         1 S1A      -0.110700
      7 C7          -1.6470   -12.2350    -0.1400 c6         1 S1A       0.179300
      8 C8          -1.6120   -12.8740     1.2590 c3         1 S1A      -0.018500
      9 C9          -2.7830   -13.8080     1.4280 c2         1 S1A      -0.197200
     10 C10         -3.7700   -13.6730     2.3070 c2         1 S1A      -0.246200
     11 C11         -4.9260   -14.6200     2.4190 c3         1 S1A       0.180500
     12 C12         -6.2730   -13.9510     2.1060 c3         1 S1A       0.183300
     13 C13         -6.3840   -13.5080     0.6500 c3         1 S1A      -0.078400
     14 C14         -6.2220   -14.6330    -0.3670 c3         1 S1A      -0.076400
     15 C15         -6.4750   -14.1750    -1.8020 c3         1 S1A      -0.074400
     16 C16         -6.3810   -15.3040    -2.8310 c3         1 S1A      -0.066400
     17 C17         -5.0420   -16.0330    -2.8410 c3         1 S1A       0.217600
     18 C19         -1.9940   -13.9730    -4.7730 c3         1 S1A      -0.079100
     19 C21          0.8850   -11.8150    -0.1460 c3         1 S1A      -0.079100
     20 C22         -1.5320   -11.8050     2.3480 c3         1 S1A      -0.092100
     21 C25         -4.9970   -17.1600    -3.8420 ca         1 S1A      -0.110300
     22 C26         -4.8060   -16.9110    -5.2010 ca         1 S1A      -0.090500
     23 C27         -4.8060   -17.9590    -6.1150 ca         1 S1A      -0.114500
     24 C28         -5.0050   -19.2670    -5.6810 ca         1 S1A      -0.105000
     25 C29         -5.1980   -19.5210    -4.3270 ca         1 S1A      -0.114500
     26 C30         -5.1890   -18.4720    -3.4130 ca         1 S1A      -0.090500
     27 O1          -2.4520   -16.2060    -2.0770 o          1 S1A      -0.487000
     28 O3          -3.1230   -12.3090    -2.5980 oh         1 S1A      -0.727000
     29 O4           0.4550   -12.5990    -3.0640 os         1 S1A      -0.443000
     30 O5          -1.8160    -9.9570    -2.0770 oh         1 S1A      -0.747000
     31 O7          -1.6330   -13.3030    -1.1020 os         1 S1A      -0.465000
     32 O11         -5.0210   -15.1800     3.7370 os         1 S1A      -0.470000
     33 O12         -6.4960   -12.7900     2.9100 os         1 S1A      -0.470000
     34 O18         -4.0330   -15.0370    -3.1620 os         1 S1A      -0.434100
     35 H2          -0.8210   -14.6340    -3.0950 hc         1 S1A       0.103700
     36 H4          -1.0820   -11.4810    -3.8610 h1         1 S1A       0.065700
     37 H5           0.2450   -10.1670    -2.1410 h1         1 S1A       0.049700
     38 H6          -0.6550   -10.3690     0.1900 hc         1 S1A       0.045700
     39 H7          -2.5990   -11.7020    -0.2270 h1         1 S1A       0.045700
     40 H8          -0.7040   -13.4860     1.3050 hc         1 S1A       0.069700
     41 H9          -2.8050   -14.6520     0.7460 ha         1 S1A       0.188000
     42 H10         -3.7880   -12.8420     3.0020 ha         1 S1A       0.185000
     43 H11         -4.7880   -15.4440     1.7100 h1         1 S1A       0.042700
     44 H12         -7.0570   -14.6880     2.3200 h1         1 S1A       0.043700
     45 H131        -5.6390   -12.7290     0.4620 hc         1 S1A       0.054700
     46 H132        -7.3660   -13.0430     0.5300 hc         1 S1A       0.054700
     47 H141        -6.9050   -15.4540    -0.1210 hc         1 S1A       0.038200
     48 H142        -5.2120   -15.0400    -0.2960 hc         1 S1A       0.038200
     49 H151        -5.7630   -13.3870    -2.0600 hc         1 S1A       0.052200
     50 H152        -7.4730   -13.7310    -1.8710 hc         1 S1A       0.052200
     51 H161        -6.5740   -14.9160    -3.8350 hc         1 S1A       0.051200
     52 H162        -7.1500   -16.0560    -2.6280 hc         1 S1A       0.051200
     53 H17         -4.8190   -16.4310    -1.8550 h1         1 S1A       0.069700
     54 H191        -1.1570   -13.4020    -5.1730 hc         1 S1A       0.046033
     55 H192        -2.9170   -13.4340    -4.9750 hc         1 S1A       0.046033
     56 H193        -2.0320   -14.9270    -5.3010 hc         1 S1A       0.046033
     57 H201         2.2240   -12.6390    -4.0480 h1         1 S1A       0.035367
     58 H202         1.6870   -11.0010    -3.6200 h1         1 S1A       0.035367
     59 H203         0.8990   -11.8710    -4.9610 h1         1 S1A       0.035367
     60 H211         1.0420   -11.9230     0.9260 hc         1 S1A       0.044033
     61 H212         1.6530   -11.1390    -0.5280 hc         1 S1A       0.044033
     62 H213         1.0310   -12.7850    -0.6160 hc         1 S1A       0.044033
     63 H221        -1.5570   -12.2660     3.3350 hc         1 S1A       0.038033
     64 H222        -2.3690   -11.1060     2.2820 hc         1 S1A       0.038033
     65 H223        -0.6100   -11.2310     2.2720 hc         1 S1A       0.038033
     66 H231        -4.1760   -16.4960     5.0270 h1         1 S1A       0.030700
     67 H232        -2.9950   -15.5850     4.0550 h1         1 S1A       0.030700
     68 H233        -3.9320   -16.9000     3.3080 h1         1 S1A       0.030700
     69 H241        -7.3700   -12.0440     4.5780 h1         1 S1A       0.032367
     70 H242        -6.5320   -13.5950     4.8380 h1         1 S1A       0.032367
     71 H243        -8.0980   -13.5580     3.9930 h1         1 S1A       0.032367
     72 H26         -4.6480   -15.8970    -5.5440 ha         1 S1A       0.117000
     73 H27         -4.6510   -17.7550    -7.1670 ha         1 S1A       0.112000
     74 H28         -5.0040   -20.0830    -6.3930 ha         1 S1A       0.111000
     75 H29         -5.3460   -20.5360    -3.9800 ha         1 S1A       0.112000
     76 H30         -5.3280   -18.6710    -2.3570 ha         1 S1A       0.117000
     77 H3          -3.0300   -11.3570    -2.4110 ho         1 S1A       0.533000
     78 HA          -1.8700    -9.3040    -1.3670 ho         1 S1A       0.517000
     79 C20          1.3590   -11.9830    -3.9730 c3         1 S1A       0.140900
     80 C23         -3.9690   -16.0840     4.0400 c3         1 S1A       0.146900
     81 C24         -7.1550   -13.0220     4.1480 c3         1 S1A       0.151900
@<TRIPOS>BOND
     1     1     2 1   
     2     1    27 2   
     3     1    34 1   
     4     2     3 1   
     5     2    18 1   
     6     2    35 1   
     7     3     4 1   
     8     3    28 1   
     9     3    31 1   
    10     4     5 1   
    11     4    29 1   
    12     4    36 1   
    13     5     6 1   
    14     5    30 1   
    15     5    37 1   
    16     6     7 1   
    17     6    19 1   
    18     6    38 1   
    19     7     8 1   
    20     7    31 1   
    21     7    39 1   
    22     8     9 1   
    23     8    20 1   
    24     8    40 1   
    25     9    10 2   
    26     9    41 1   
    27    10    11 1   
    28    10    42 1   
    29    11    12 1   
    30    11    32 1   
    31    11    43 1   
    32    12    13 1   
    33    12    33 1   
    34    12    44 1   
    35    13    14 1   
    36    13    45 1   
    37    13    46 1   
    38    14    15 1   
    39    14    47 1   
    40    14    48 1   
    41    15    16 1   
    42    15    49 1   
    43    15    50 1   
    44    16    17 1   
    45    16    51 1   
    46    16    52 1   
    47    17    21 1   
    48    17    34 1   
    49    17    53 1   
    50    18    54 1   
    51    18    55 1   
    52    18    56 1   
    53    19    60 1   
    54    19    61 1   
    55    19    62 1   
    56    20    63 1   
    57    20    64 1   
    58    20    65 1   
    59    21    22 ar  
    60    21    26 ar  
    61    22    23 ar  
    62    22    72 1   
    63    23    24 ar  
    64    23    73 1   
    65    24    25 ar  
    66    24    74 1   
    67    25    26 ar  
    68    25    75 1   
    69    26    76 1   
    70    28    77 1   
    71    29    79 1   
    72    30    78 1   
    73    32    80 1   
    74    33    81 1   
    75    57    79 1   
    76    58    79 1   
    77    59    79 1   
    78    66    80 1   
    79    67    80 1   
    80    68    80 1   
    81    69    81 1   
    82    70    81 1   
    83    71    81 1   
@<TRIPOS>SUBSTRUCTURE
     1 S1A         1 TEMP              0 ****  ****    0 ROOT
