@<TRIPOS>MOLECULE
S1C
   31    32     1     0     0
SMALL
No Charge or Current Charge


@<TRIPOS>ATOM
      1 N            4.3860    -0.1190     0.0480 ns         1 S1C      -0.141000
      2 C            6.7280     0.5770    -0.0760 c3         1 S1C      -0.182100
      3 O            4.9130     1.9730    -0.8060 o          1 S1C      -0.588100
      4 C1           5.2560     0.9000    -0.3230 c          1 S1C       0.604100
      5 C10         -3.2900    -2.3100    -0.3440 ca         1 S1C      -0.151000
      6 C11         -4.1580    -1.2300    -0.1160 ca         1 S1C      -0.075000
      7 C12         -3.6440     0.0620     0.1390 ca         1 S1C      -0.138600
      8 C13         -2.2400     0.2390     0.1560 ca         1 S1C      -0.068000
      9 C14         -4.5790     1.2340     0.3910 c          1 S1C       0.712600
     10 C2           2.9690    -0.2420    -0.0060 ca         1 S1C      -0.051000
     11 C3           2.1140     0.7610    -0.5100 ca         1 S1C      -0.151000
     12 C4           0.7220     0.5650    -0.5300 ca         1 S1C      -0.085000
     13 C5           0.1380    -0.6330    -0.0500 cp         1 S1C      -0.011000
     14 C6           1.0090    -1.6300     0.4510 ca         1 S1C      -0.085000
     15 C7           2.4010    -1.4360     0.4720 ca         1 S1C      -0.151000
     16 C8          -1.3460    -0.8390    -0.0730 cp         1 S1C      -0.087000
     17 C9          -1.9010    -2.1180    -0.3230 ca         1 S1C      -0.123000
     18 O1          -5.7860     1.0340     0.3790 o          1 S1C      -0.719500
     19 O2          -4.0940     2.3380     0.5960 o          1 S1C      -0.719500
     20 H3           4.8490    -0.9330     0.4300 hn         1 S1C       0.140000
     21 H1           6.9780    -0.3600    -0.5880 hc         1 S1C       0.056700
     22 H2           7.3970     1.3920    -0.3740 hc         1 S1C       0.056700
     23 H            6.8630     0.3080     0.9780 hc         1 S1C       0.056700
     24 H9          -3.6980    -3.2980    -0.5420 ha         1 S1C       0.086000
     25 H10         -5.2320    -1.4020    -0.1380 ha         1 S1C       0.128000
     26 H11         -1.8320     1.2250     0.3650 ha         1 S1C       0.131000
     27 H4           2.5050     1.6970    -0.8950 ha         1 S1C       0.116500
     28 H5           0.0890     1.3500    -0.9370 ha         1 S1C       0.121500
     29 H6           0.6020    -2.5600     0.8400 ha         1 S1C       0.121500
     30 H7           3.0410    -2.2230     0.8680 ha         1 S1C       0.116500
     31 H8          -1.2500    -2.9670    -0.5150 ha         1 S1C       0.084000
@<TRIPOS>BOND
     1     1     4 1   
     2     1    10 1   
     3     1    20 1   
     4     2     4 1   
     5     2    21 1   
     6     2    22 1   
     7     2    23 1   
     8     3     4 2   
     9     5     6 ar  
    10     5    17 ar  
    11     5    24 1   
    12     6     7 ar  
    13     6    25 1   
    14     7     8 ar  
    15     7     9 1   
    16     8    16 ar  
    17     8    26 1   
    18     9    18 1   
    19     9    19 1   
    20    10    11 ar  
    21    10    15 ar  
    22    11    12 ar  
    23    11    27 1   
    24    12    13 ar  
    25    12    28 1   
    26    13    14 ar  
    27    13    16 1   
    28    14    15 ar  
    29    14    29 1   
    30    15    30 1   
    31    16    17 ar  
    32    17    31 1   
@<TRIPOS>SUBSTRUCTURE
     1 S1C         1 TEMP              0 ****  ****    0 ROOT
