@<TRIPOS>MOLECULE
S1C
   31    32     1     0     0
SMALL
abcg2


@<TRIPOS>ATOM
      1 N            4.3370    -0.1850     0.0390 ns         1 S1C      -0.141000
      2 C            6.6150     0.6010    -0.0220 c3         1 S1C      -0.182100
      3 O            4.7480     1.9410    -0.6610 o          1 S1C      -0.588100
      4 C1           5.1490     0.8640    -0.2540 c          1 S1C       0.604100
      5 C10         -3.2480    -2.2610    -0.4280 ca         1 S1C      -0.151000
      6 C11         -4.0920    -1.1950    -0.1490 ca         1 S1C      -0.075000
      7 C12         -3.5650     0.0560     0.1610 ca         1 S1C      -0.138600
      8 C13         -2.1830     0.2120     0.1840 ca         1 S1C      -0.068000
      9 C14         -4.4800     1.2350     0.4740 c          1 S1C       0.712600
     10 C2           2.9440    -0.2750    -0.0230 ca         1 S1C      -0.051000
     11 C3           2.0990     0.7400    -0.4730 ca         1 S1C      -0.151000
     12 C4           0.7270     0.5400    -0.4890 ca         1 S1C      -0.085000
     13 C5           0.1450    -0.6550    -0.0710 cp         1 S1C      -0.011000
     14 C6           1.0030    -1.6630     0.3720 ca         1 S1C      -0.085000
     15 C7           2.3720    -1.4790     0.3970 ca         1 S1C      -0.151000
     16 C8          -1.3180    -0.8460    -0.0970 cp         1 S1C      -0.087000
     17 C9          -1.8720    -2.0910    -0.4050 ca         1 S1C      -0.123000
     18 O1          -5.7060     1.0180     0.4180 o          1 S1C      -0.719500
     19 O2          -3.9250     2.3140     0.7570 o          1 S1C      -0.719500
     20 H3           4.7960    -1.0190     0.3720 hn         1 S1C       0.140000
     21 H1           6.8420    -0.4280     0.2510 hc         1 S1C       0.056700
     22 H2           7.1750     0.8540    -0.9210 hc         1 S1C       0.056700
     23 H            6.9710     1.2520     0.7760 hc         1 S1C       0.056700
     24 H9          -3.6620    -3.2300    -0.6770 ha         1 S1C       0.086000
     25 H10         -5.1650    -1.3330    -0.1710 ha         1 S1C       0.128000
     26 H11         -1.7770     1.1800     0.4500 ha         1 S1C       0.131000
     27 H4           2.4950     1.6800    -0.8180 ha         1 S1C       0.116500
     28 H5           0.1020     1.3410    -0.8620 ha         1 S1C       0.121500
     29 H6           0.6020    -2.6040     0.7260 ha         1 S1C       0.121500
     30 H7           3.0070    -2.2800     0.7570 ha         1 S1C       0.116500
     31 H8          -1.2270    -2.9270    -0.6460 ha         1 S1C       0.084000
@<TRIPOS>BOND
     1     1     4 1   
     2     1    10 1   
     3     1    20 1   
     4     2     4 1   
     5     2    21 1   
     6     2    22 1   
     7     2    23 1   
     8     3     4 2   
     9     5     6 ar  
    10     5    17 ar  
    11     5    24 1   
    12     6     7 ar  
    13     6    25 1   
    14     7     8 ar  
    15     7     9 1   
    16     8    16 ar  
    17     8    26 1   
    18     9    18 1   
    19     9    19 1   
    20    10    11 ar  
    21    10    15 ar  
    22    11    12 ar  
    23    11    27 1   
    24    12    13 ar  
    25    12    28 1   
    26    13    14 ar  
    27    13    16 1   
    28    14    15 ar  
    29    14    29 1   
    30    15    30 1   
    31    16    17 ar  
    32    17    31 1   
@<TRIPOS>SUBSTRUCTURE
     1 S1C         1 TEMP              0 ****  ****    0 ROOT
