@<TRIPOS>MOLECULE
S1D
   24    25     1     0     0
SMALL
No Charge or Current Charge


@<TRIPOS>ATOM
      1 C           -3.6730    -0.9670     0.4760 c          1 S1D       0.713600
      2 O           -4.8450    -0.6180     0.4460 o          1 S1D      -0.719000
      3 C1          -2.5990     0.0640     0.1700 ca         1 S1D      -0.138600
      4 C10          3.9800    -0.4610     0.0530 ca         1 S1D       0.141000
      5 C11          3.5860     0.8180     0.4720 ca         1 S1D      -0.157500
      6 C12          2.2280     1.1810     0.4300 ca         1 S1D      -0.085500
      7 C2          -1.2270    -0.2850     0.2060 ca         1 S1D      -0.067000
      8 C3          -0.2060     0.6600    -0.0730 cp         1 S1D      -0.092000
      9 C4          -0.5970     1.9830    -0.3930 ca         1 S1D      -0.121000
     10 C5          -1.9520     2.3450    -0.4340 ca         1 S1D      -0.150000
     11 C6          -2.9470     1.3950    -0.1560 ca         1 S1D      -0.074000
     12 C7           1.2400     0.2720    -0.0300 cp         1 S1D      -0.004000
     13 C8           1.6670    -1.0160    -0.4480 ca         1 S1D      -0.085500
     14 C9           3.0260    -1.3790    -0.4070 ca         1 S1D      -0.157500
     15 O1          -3.3300    -2.1100     0.7430 o          1 S1D      -0.719000
     16 H6           4.3300     1.5250     0.8310 ha         1 S1D       0.118500
     17 H7           1.9370     2.1720     0.7710 ha         1 S1D       0.123000
     18 H           -0.9460    -1.3020     0.4690 ha         1 S1D       0.130000
     19 H1           0.1540     2.7330    -0.6260 ha         1 S1D       0.085000
     20 H2          -2.2320     3.3650    -0.6860 ha         1 S1D       0.087000
     21 H3          -3.9910     1.6980    -0.1930 ha         1 S1D       0.128000
     22 H4           0.9420    -1.7340    -0.8210 ha         1 S1D       0.123000
     23 H5           3.3370    -2.3670    -0.7340 ha         1 S1D       0.118500
     24 F            5.2840    -0.8090     0.0920 f          1 S1D      -0.198000
@<TRIPOS>BOND
     1     1     2 1   
     2     1     3 1   
     3     1    15 1   
     4     3     7 ar  
     5     3    11 ar  
     6     4     5 ar  
     7     4    14 ar  
     8     4    24 1   
     9     5     6 ar  
    10     5    16 1   
    11     6    12 ar  
    12     6    17 1   
    13     7     8 ar  
    14     7    18 1   
    15     8     9 ar  
    16     8    12 1   
    17     9    10 ar  
    18     9    19 1   
    19    10    11 ar  
    20    10    20 1   
    21    11    21 1   
    22    12    13 ar  
    23    13    14 ar  
    24    13    22 1   
    25    14    23 1   
@<TRIPOS>SUBSTRUCTURE
     1 S1D         1 TEMP              0 ****  ****    0 ROOT
