@<TRIPOS>MOLECULE
S1D
   24    25     1     0     0
SMALL
abcg2


@<TRIPOS>ATOM
      1 C           -3.6170    -0.9700     0.4860 c          1 S1D       0.713600
      2 O           -4.8020    -0.5990     0.3820 o          1 S1D      -0.719000
      3 C1          -2.5490     0.0710     0.1670 ca         1 S1D      -0.138600
      4 C10          3.9010    -0.4520     0.0510 ca         1 S1D       0.141000
      5 C11          3.5370     0.8100     0.4810 ca         1 S1D      -0.157500
      6 C12          2.1970     1.1650     0.4360 ca         1 S1D      -0.085500
      7 C2          -1.2000    -0.2670     0.2070 ca         1 S1D      -0.067000
      8 C3          -0.2010     0.6650    -0.0740 cp         1 S1D      -0.092000
      9 C4          -0.5790     1.9700    -0.3970 ca         1 S1D      -0.121000
     10 C5          -1.9200     2.3210    -0.4360 ca         1 S1D      -0.150000
     11 C6          -2.9010     1.3780    -0.1600 ca         1 S1D      -0.074000
     12 C7           1.2240     0.2790    -0.0310 cp         1 S1D      -0.004000
     13 C8           1.6380    -0.9850    -0.4560 ca         1 S1D      -0.085500
     14 C9           2.9720    -1.3590    -0.4180 ca         1 S1D      -0.157500
     15 O1          -3.2150    -2.1000     0.8220 o          1 S1D      -0.719000
     16 H6           4.2820     1.5020     0.8510 ha         1 S1D       0.118500
     17 H7           1.9090     2.1450     0.7940 ha         1 S1D       0.123000
     18 H           -0.9280    -1.2770     0.4860 ha         1 S1D       0.130000
     19 H1           0.1740     2.7100    -0.6370 ha         1 S1D       0.085000
     20 H2          -2.2000     3.3340    -0.6940 ha         1 S1D       0.087000
     21 H3          -3.9450     1.6570    -0.1980 ha         1 S1D       0.128000
     22 H4           0.9110    -1.6900    -0.8400 ha         1 S1D       0.123000
     23 H5           3.2830    -2.3390    -0.7560 ha         1 S1D       0.118500
     24 F            5.1960    -0.8060     0.0910 f          1 S1D      -0.198000
@<TRIPOS>BOND
     1     1     2 1   
     2     1     3 1   
     3     1    15 1   
     4     3     7 ar  
     5     3    11 ar  
     6     4     5 ar  
     7     4    14 ar  
     8     4    24 1   
     9     5     6 ar  
    10     5    16 1   
    11     6    12 ar  
    12     6    17 1   
    13     7     8 ar  
    14     7    18 1   
    15     8     9 ar  
    16     8    12 1   
    17     9    10 ar  
    18     9    19 1   
    19    10    11 ar  
    20    10    20 1   
    21    11    21 1   
    22    12    13 ar  
    23    13    14 ar  
    24    13    22 1   
    25    14    23 1   
@<TRIPOS>SUBSTRUCTURE
     1 S1D         1 TEMP              0 ****  ****    0 ROOT
