@<TRIPOS>MOLECULE
S1F
   43    45     1     0     0
SMALL
abcg2


@<TRIPOS>ATOM
      1 C18        -45.0060   -30.5840     1.2320 ca         1 S1F      -0.082300
      2 C16        -42.8320   -29.6320     1.4040 c5         1 S1F      -0.016100
      3 C17        -43.6920   -30.7030     0.7800 ca         1 S1F      -0.053300
      4 C13        -43.3190   -30.0630     3.9030 c          1 S1F       0.720000
      5 C12        -43.6440   -29.2090     2.6420 c5         1 S1F      -0.205700
      6 C11        -45.1150   -29.3840     2.1530 c5         1 S1F       0.165000
      7 C20        -45.6390   -32.4940    -0.0620 ca         1 S1F      -0.135000
      8 C19        -45.9880   -31.4710     0.8200 ca         1 S1F      -0.080000
      9 C01        -53.6230   -29.3560     9.6140 c3         1 S1F       0.172900
     10 C03        -51.9320   -29.2750     7.9630 c          1 S1F       0.639100
     11 C05        -49.8380   -29.1690     6.6220 ca         1 S1F      -0.012000
     12 C06        -50.4040   -29.2200     5.3440 ca         1 S1F      -0.168500
     13 C07        -49.5810   -29.2040     4.2280 ca         1 S1F      -0.043500
     14 C08        -48.1920   -29.1490     4.3400 ca         1 S1F      -0.152600
     15 C21        -44.3290   -32.6130    -0.5220 ca         1 S1F      -0.126000
     16 C22        -43.3460   -31.7150    -0.1030 ca         1 S1F      -0.108000
     17 C24        -47.6360   -29.0920     5.6220 ca         1 S1F      -0.043500
     18 C25        -48.4450   -29.0990     6.7450 ca         1 S1F      -0.168500
     19 N10        -46.0790   -29.4810     3.2260 ns         1 S1F      -0.478900
     20 O02        -52.2270   -29.2570     9.2790 os         1 S1F      -0.470100
     21 O14        -44.0190   -29.8140     4.9310 o          1 S1F      -0.725500
     22 O15        -42.4010   -30.9060     3.8410 o          1 S1F      -0.725500
     23 O26        -52.7610   -29.3640     7.0800 o          1 S1F      -0.525000
     24 H162       -41.8380   -29.9850     1.6690 hc         1 S1F       0.047700
     25 H161       -42.7230   -28.7850     0.7180 hc         1 S1F       0.047700
     26 H121       -43.4680   -28.1680     2.9180 hc         1 S1F       0.047700
     27 H111       -45.3830   -28.5140     1.5450 h1         1 S1F       0.050700
     28 H201       -46.3900   -33.2030    -0.3900 ha         1 S1F       0.093000
     29 H191       -47.0050   -31.3750     1.1790 ha         1 S1F       0.119000
     30 H013       -53.6600   -29.3260    10.6990 h1         1 S1F       0.047033
     31 H011       -54.1750   -28.5170     9.1920 h1         1 S1F       0.047033
     32 H012       -54.0360   -30.2940     9.2450 h1         1 S1F       0.047033
     33 H061       -51.4740   -29.2730     5.2290 ha         1 S1F       0.125000
     34 H071       -50.0220   -29.2400     3.2410 ha         1 S1F       0.144500
     35 H211       -44.0700   -33.4150    -1.2040 ha         1 S1F       0.090000
     36 H221       -42.3250   -31.8210    -0.4520 ha         1 S1F       0.101000
     37 H241       -46.5660   -29.0210     5.7620 ha         1 S1F       0.144500
     38 H251       -47.9990   -29.0460     7.7310 ha         1 S1F       0.125000
     39 H041       -50.0520   -29.1170     8.6650 hn         1 S1F       0.163000
     40 H101       -45.6570   -29.6690     4.1360 hn         1 S1F       0.381500
     41 C09        -47.3700   -29.1370     3.0900 c          1 S1F       0.601700
     42 O23        -47.8700   -28.8390     1.9970 o          1 S1F      -0.663100
     43 N04        -50.5800   -29.1780     7.8070 ns         1 S1F      -0.135000
@<TRIPOS>BOND
     1     1     3 ar  
     2     1     6 1   
     3     1     8 ar  
     4     2     3 1   
     5     2     5 1   
     6     2    24 1   
     7     2    25 1   
     8     3    16 ar  
     9     4     5 1   
    10     4    21 1   
    11     4    22 1   
    12     5     6 1   
    13     5    26 1   
    14     6    19 1   
    15     6    27 1   
    16     7     8 ar  
    17     7    15 ar  
    18     7    28 1   
    19     8    29 1   
    20     9    20 1   
    21     9    30 1   
    22     9    31 1   
    23     9    32 1   
    24    10    20 1   
    25    10    23 2   
    26    10    43 1   
    27    11    12 ar  
    28    11    18 ar  
    29    11    43 1   
    30    12    13 ar  
    31    12    33 1   
    32    13    14 ar  
    33    13    34 1   
    34    14    17 ar  
    35    14    41 1   
    36    15    16 ar  
    37    15    35 1   
    38    16    36 1   
    39    17    18 ar  
    40    17    37 1   
    41    18    38 1   
    42    19    40 1   
    43    19    41 1   
    44    39    43 1   
    45    41    42 2   
@<TRIPOS>SUBSTRUCTURE
     1 S1F         1 TEMP              0 ****  ****    0 ROOT
