@<TRIPOS>MOLECULE
S1F
   43    45     1     0     0
SMALL
No Charge or Current Charge


@<TRIPOS>ATOM
      1 C18        -45.0230   -30.3960     0.9920 ca         1 S1F      -0.082300
      2 C16        -43.1070   -30.3860     2.4390 c5         1 S1F      -0.016100
      3 C17        -43.8770   -31.0830     1.3500 ca         1 S1F      -0.053300
      4 C13        -43.5830   -28.1420     3.6500 c          1 S1F       0.720000
      5 C12        -43.7180   -28.9330     2.3180 c5         1 S1F      -0.205700
      6 C11        -45.2070   -29.1250     1.7890 c5         1 S1F       0.165000
      7 C20        -45.5470   -32.1040    -0.6470 ca         1 S1F      -0.135000
      8 C19        -45.8750   -30.8910    -0.0100 ca         1 S1F      -0.080000
      9 C01        -53.3180   -29.6350     9.9370 c3         1 S1F       0.172900
     10 C03        -51.8160   -29.5000     8.0610 c          1 S1F       0.639100
     11 C05        -49.7560   -29.4910     6.5330 ca         1 S1F      -0.012000
     12 C06        -50.3700   -29.2100     5.2960 ca         1 S1F      -0.168500
     13 C07        -49.6000   -29.1060     4.1240 ca         1 S1F      -0.043500
     14 C08        -48.1990   -29.2780     4.1560 ca         1 S1F      -0.152600
     15 C21        -44.3800   -32.8060    -0.2780 ca         1 S1F      -0.126000
     16 C22        -43.5370   -32.2950     0.7270 ca         1 S1F      -0.108000
     17 C24        -47.5870   -29.5610     5.4010 ca         1 S1F      -0.043500
     18 C25        -48.3620   -29.6650     6.5700 ca         1 S1F      -0.168500
     19 N10        -46.0400   -29.2910     2.9770 ns         1 S1F      -0.478900
     20 O02        -51.9820   -29.7060     9.4050 os         1 S1F      -0.470100
     21 O14        -42.9910   -27.0750     3.6320 o          1 S1F      -0.725500
     22 O15        -44.0270   -28.6160     4.6880 o          1 S1F      -0.725500
     23 O26        -52.7250   -29.2590     7.2780 o          1 S1F      -0.525000
     24 H162       -43.3020   -30.8480     3.4140 hc         1 S1F       0.047700
     25 H161       -42.0230   -30.3950     2.2760 hc         1 S1F       0.047700
     26 H121       -43.1720   -28.3760     1.5470 hc         1 S1F       0.047700
     27 H111       -45.5230   -28.2800     1.1620 h1         1 S1F       0.050700
     28 H201       -46.1960   -32.5010    -1.4240 ha         1 S1F       0.093000
     29 H191       -46.7740   -30.3480    -0.2890 ha         1 S1F       0.119000
     30 H013       -53.3080   -29.8180    11.0190 h1         1 S1F       0.047033
     31 H011       -53.7570   -28.6430     9.7650 h1         1 S1F       0.047033
     32 H012       -53.9670   -30.3880     9.4710 h1         1 S1F       0.047033
     33 H061       -51.4430   -29.0690     5.2170 ha         1 S1F       0.125000
     34 H071       -50.1030   -28.8880     3.1830 ha         1 S1F       0.144500
     35 H211       -44.1310   -33.7420    -0.7710 ha         1 S1F       0.090000
     36 H221       -42.6360   -32.8300     1.0170 ha         1 S1F       0.101000
     37 H241       -46.5140   -29.7100     5.4870 ha         1 S1F       0.144500
     38 H251       -47.8690   -29.8840     7.5140 ha         1 S1F       0.125000
     39 H041       -49.8900   -29.8160     8.5560 hn         1 S1F       0.163000
     40 H101       -45.6400   -29.3630     3.9070 hn         1 S1F       0.381500
     41 C09        -47.4070   -29.1580     2.8690 c          1 S1F       0.601700
     42 O23        -47.9570   -28.9530     1.7930 o          1 S1F      -0.663100
     43 N04        -50.4710   -29.6110     7.7550 ns         1 S1F      -0.135000
@<TRIPOS>BOND
     1     1     3 ar  
     2     1     6 1   
     3     1     8 ar  
     4     2     3 1   
     5     2     5 1   
     6     2    24 1   
     7     2    25 1   
     8     3    16 ar  
     9     4     5 1   
    10     4    21 1   
    11     4    22 1   
    12     5     6 1   
    13     5    26 1   
    14     6    19 1   
    15     6    27 1   
    16     7     8 ar  
    17     7    15 ar  
    18     7    28 1   
    19     8    29 1   
    20     9    20 1   
    21     9    30 1   
    22     9    31 1   
    23     9    32 1   
    24    10    20 1   
    25    10    23 2   
    26    10    43 1   
    27    11    12 ar  
    28    11    18 ar  
    29    11    43 1   
    30    12    13 ar  
    31    12    33 1   
    32    13    14 ar  
    33    13    34 1   
    34    14    17 ar  
    35    14    41 1   
    36    15    16 ar  
    37    15    35 1   
    38    16    36 1   
    39    17    18 ar  
    40    17    37 1   
    41    18    38 1   
    42    19    40 1   
    43    19    41 1   
    44    39    43 1   
    45    41    42 2   
@<TRIPOS>SUBSTRUCTURE
     1 S1F         1 TEMP              0 ****  ****    0 ROOT
