@<TRIPOS>MOLECULE
S1G
   29    30     1     0     0
SMALL
bcc


@<TRIPOS>ATOM
      1 N1          13.5700    22.9890     0.8490 nu         1 S1G      -0.795600
      2 C4          11.5420    23.4940     2.1840 ca         1 S1G      -0.084300
      3 C5          10.2960    23.0290     2.5950 ca         1 S1G      -0.114000
      4 C6           9.2990    23.9150     2.9800 ca         1 S1G      -0.134000
      5 C7          12.6290    22.5060     1.8210 c3         1 S1G       0.281100
      6 C8          13.3020    23.0180    -0.4960 ca         1 S1G       0.139600
      7 C10         11.7870    22.8840    -2.3780 ca         1 S1G      -0.071500
      8 C13         14.3410    23.2550    -1.4110 ca         1 S1G      -0.227000
      9 C1           9.5340    25.2830     2.9510 ca         1 S1G      -0.137000
     10 C11         12.8110    23.1170    -3.2910 ca         1 S1G      -0.166600
     11 C12         14.0930    23.3010    -2.7690 ca         1 S1G      -0.071500
     12 C14         12.5490    23.1690    -4.7860 c          1 S1G       0.927200
     13 C2          10.7730    25.7550     2.5360 ca         1 S1G      -0.134000
     14 C3          11.7690    24.8660     2.1560 ca         1 S1G      -0.114000
     15 C9          12.0120    22.8340    -1.0100 ca         1 S1G      -0.227000
     16 O1          13.5330    23.4030    -5.5180 o          1 S1G      -0.833300
     17 O2          11.3730    22.9750    -5.1580 o          1 S1G      -0.833300
     18 H1          14.5400    22.9380     1.1070 hn         1 S1G       0.408800
     19 H2          10.1020    21.9620     2.6110 ha         1 S1G       0.134000
     20 H3           8.3350    23.5360     3.2960 ha         1 S1G       0.122000
     21 H4          12.1640    21.5650     1.4990 h1         1 S1G       0.032700
     22 H5          13.1970    22.2650     2.7210 h1         1 S1G       0.032700
     23 H6          10.7790    22.7360    -2.7430 ha         1 S1G       0.140500
     24 H7          15.3500    23.4000    -1.0410 ha         1 S1G       0.104000
     25 H8           8.7560    25.9770     3.2450 ha         1 S1G       0.120000
     26 H9          14.9190    23.4830    -3.4440 ha         1 S1G       0.140500
     27 H10         10.9640    26.8200     2.5060 ha         1 S1G       0.122000
     28 H11         12.7300    25.2420     1.8280 ha         1 S1G       0.134000
     29 H12         11.1750    22.6550    -0.3470 ha         1 S1G       0.104000
@<TRIPOS>BOND
     1     1     5 1   
     2     1     6 1   
     3     1    18 1   
     4     2     3 ar  
     5     2     5 1   
     6     2    14 ar  
     7     3     4 ar  
     8     3    19 1   
     9     4     9 ar  
    10     4    20 1   
    11     5    21 1   
    12     5    22 1   
    13     6     8 ar  
    14     6    15 ar  
    15     7    10 ar  
    16     7    15 ar  
    17     7    23 1   
    18     8    11 ar  
    19     8    24 1   
    20     9    13 ar  
    21     9    25 1   
    22    10    11 ar  
    23    10    12 1   
    24    11    26 1   
    25    12    16 1   
    26    12    17 1   
    27    13    14 ar  
    28    13    27 1   
    29    14    28 1   
    30    15    29 1   
@<TRIPOS>SUBSTRUCTURE
     1 S1G         1 TEMP              0 ****  ****    0 ROOT
