@<TRIPOS>MOLECULE
S1G
   29    30     1     0     0
SMALL
No Charge or Current Charge


@<TRIPOS>ATOM
      1 N1          13.6250    22.6210     0.9060 nu         1 S1G      -0.989200
      2 C4          11.7270    23.5310     2.2090 ca         1 S1G      -0.084300
      3 C5          10.4110    23.4160     1.7150 ca         1 S1G      -0.096000
      4 C6           9.4990    24.4750     1.8720 ca         1 S1G      -0.116000
      5 C7          12.7190    22.3820     2.0430 c3         1 S1G       0.281100
      6 C8          13.2370    22.7300    -0.4270 ca         1 S1G       0.278000
      7 C10         11.8430    22.0570    -2.3100 ca         1 S1G      -0.053500
      8 C13         13.8950    23.6500    -1.2540 ca         1 S1G      -0.209000
      9 C1           9.8940    25.6540     2.5250 ca         1 S1G      -0.119000
     10 C11         12.4940    22.9890    -3.1520 ca         1 S1G      -0.166600
     11 C12         13.5280    23.7840    -2.6050 ca         1 S1G      -0.053500
     12 C14         12.0950    23.1300    -4.6110 c          1 S1G       0.716600
     13 C2          11.2030    25.7750     3.0200 ca         1 S1G      -0.116000
     14 C3          12.1160    24.7170     2.8630 ca         1 S1G      -0.096000
     15 C9          12.2150    21.9300    -0.9600 ca         1 S1G      -0.209000
     16 O1          12.6850    23.9470    -5.3030 o          1 S1G      -0.728000
     17 O2          11.1980    22.4200    -5.0440 o          1 S1G      -0.728000
     18 H1          14.4540    23.1690     1.1350 hn         1 S1G       0.464000
     19 H2          10.0960    22.5070     1.2070 ha         1 S1G       0.116000
     20 H3           8.4860    24.3800     1.4870 ha         1 S1G       0.104000
     21 H4          12.1740    21.4370     1.9070 h1         1 S1G       0.032700
     22 H5          13.3060    22.2850     2.9670 h1         1 S1G       0.032700
     23 H6          11.0460    21.4270    -2.7000 ha         1 S1G       0.122500
     24 H7          14.6910    24.2720    -0.8530 ha         1 S1G       0.086000
     25 H8           9.1880    26.4730     2.6460 ha         1 S1G       0.102000
     26 H9          14.0520    24.5090    -3.2240 ha         1 S1G       0.122500
     27 H10         11.5110    26.6880     3.5260 ha         1 S1G       0.104000
     28 H11         13.1280    24.8180     3.2490 ha         1 S1G       0.116000
     29 H12         11.7060    21.2010    -0.3380 ha         1 S1G       0.086000
@<TRIPOS>BOND
     1     1     5 1   
     2     1     6 1   
     3     1    18 1   
     4     2     3 ar  
     5     2     5 1   
     6     2    14 ar  
     7     3     4 ar  
     8     3    19 1   
     9     4     9 ar  
    10     4    20 1   
    11     5    21 1   
    12     5    22 1   
    13     6     8 ar  
    14     6    15 ar  
    15     7    10 ar  
    16     7    15 ar  
    17     7    23 1   
    18     8    11 ar  
    19     8    24 1   
    20     9    13 ar  
    21     9    25 1   
    22    10    11 ar  
    23    10    12 1   
    24    11    26 1   
    25    12    16 1   
    26    12    17 1   
    27    13    14 ar  
    28    13    27 1   
    29    14    28 1   
    30    15    29 1   
@<TRIPOS>SUBSTRUCTURE
     1 S1G         1 TEMP              0 ****  ****    0 ROOT
