@<TRIPOS>MOLECULE
S1H
   64    63     1     0     0
SMALL
No Charge or Current Charge


@<TRIPOS>ATOM
      1 N           11.4360    16.5410    16.2890 n8         1 S1H      -0.869800
      2 CA          12.8690    16.0420    16.1660 c3         1 S1H       0.014500
      3 C           13.1210    14.4780    16.1420 c          1 S1H       0.947600
      4 O           12.3100    13.7250    16.6770 o          1 S1H      -0.824300
      5 CB          13.7900    16.6930    17.2300 c3         1 S1H       0.151400
      6 OG          13.2590    16.4200    18.5370 os         1 S1H      -0.515500
      7 OXT         14.0560    14.0540    15.4670 o          1 S1H      -0.824300
      8 C1          13.0150    16.4500    21.1260 c3         1 S1H      -0.196600
      9 C2          11.5840    17.0480    21.0790 c3         1 S1H      -0.043400
     10 C3          10.6950    16.5360    22.2330 c3         1 S1H      -0.069400
     11 C4           9.2670    17.1230    22.2040 c3         1 S1H      -0.077400
     12 C5           8.3790    16.6110    23.3590 c3         1 S1H      -0.073400
     13 C6           6.9510    17.1990    23.3310 c3         1 S1H      -0.075400
     14 C7           6.0640    16.6870    24.4870 c3         1 S1H      -0.073400
     15 C8           4.6360    17.2750    24.4600 c3         1 S1H      -0.074400
     16 C9           3.7490    16.7640    25.6160 c3         1 S1H      -0.074400
     17 C10          2.3220    17.3520    25.5880 c3         1 S1H      -0.076400
     18 C11          1.4370    16.8410    26.7490 c3         1 S1H      -0.072400
     19 C12         -0.0280    17.3400    26.7070 c3         1 S1H      -0.072400
     20 C13         -0.1920    18.8650    26.9060 c3         1 S1H      -0.076400
     21 C14         -1.6700    19.3120    26.9470 c3         1 S1H      -0.076400
     22 C15         -1.8360    20.8340    27.1410 c3         1 S1H      -0.075400
     23 C16         -3.3100    21.2800    27.1820 c3         1 S1H      -0.088100
     24 S1          14.1070    17.0310    19.8060 s6         1 S1H       1.344500
     25 O1S         14.0720    18.5000    19.7350 o          1 S1H      -0.642300
     26 O2S         15.3960    16.3290    19.8870 o          1 S1H      -0.642300
     27 H           11.4420    17.5570    16.4190 hn         1 S1H       0.324800
     28 H2          11.0530    16.1770    17.1680 hn         1 S1H       0.324800
     29 HA          13.2290    16.4000    15.1930 h1         1 S1H       0.055700
     30 HB2         14.8080    16.2940    17.1240 h1         1 S1H       0.041700
     31 HB3         13.8320    17.7760    17.0490 h1         1 S1H       0.041700
     32 H11         13.5140    16.7180    22.0620 h1         1 S1H       0.097200
     33 H12         12.9850    15.3600    21.0300 h1         1 S1H       0.097200
     34 H21         11.6420    18.1430    21.1300 hc         1 S1H       0.061700
     35 H22         11.1090    16.7960    20.1230 hc         1 S1H       0.061700
     36 H31         10.6350    15.4410    22.1820 hc         1 S1H       0.036700
     37 H32         11.1680    16.7870    23.1910 hc         1 S1H       0.036700
     38 H41          9.3260    18.2180    22.2540 hc         1 S1H       0.041200
     39 H42          8.7930    16.8710    21.2470 hc         1 S1H       0.041200
     40 H51          8.3190    15.5160    23.3090 hc         1 S1H       0.034700
     41 H52          8.8530    16.8620    24.3160 hc         1 S1H       0.034700
     42 H61          7.0120    18.2940    23.3810 hc         1 S1H       0.038200
     43 H62          6.4770    16.9480    22.3740 hc         1 S1H       0.038200
     44 H71          6.0030    15.5930    24.4370 hc         1 S1H       0.035700
     45 H72          6.5390    16.9380    25.4440 hc         1 S1H       0.035700
     46 H81          4.6970    18.3700    24.5100 hc         1 S1H       0.037200
     47 H82          4.1620    17.0240    23.5030 hc         1 S1H       0.037200
     48 H91          3.6890    15.6690    25.5650 hc         1 S1H       0.035700
     49 H92          4.2240    17.0150    26.5720 hc         1 S1H       0.035700
     50 H101         2.3920    18.4460    25.6330 hc         1 S1H       0.037700
     51 H102         1.8460    17.0990    24.6330 hc         1 S1H       0.037700
     52 H111         1.4260    15.7440    26.7260 hc         1 S1H       0.036700
     53 H112         1.8890    17.1290    27.7060 hc         1 S1H       0.036700
     54 H121        -0.4820    17.0460    25.7530 hc         1 S1H       0.035700
     55 H122        -0.5900    16.8210    27.4940 hc         1 S1H       0.035700
     56 H131         0.3000    19.1620    27.8410 hc         1 S1H       0.038200
     57 H132         0.3140    19.3980    26.0920 hc         1 S1H       0.038200
     58 H141        -2.1620    19.0120    26.0130 hc         1 S1H       0.035200
     59 H142        -2.1830    18.7860    27.7620 hc         1 S1H       0.035200
     60 H151        -1.3460    21.1380    28.0750 hc         1 S1H       0.036700
     61 H152        -1.3270    21.3630    26.3260 hc         1 S1H       0.036700
     62 H161        -3.3780    22.3660    27.3220 hc         1 S1H       0.030033
     63 H162        -3.8200    21.0220    26.2460 hc         1 S1H       0.030033
     64 H163        -3.8400    20.7940    28.0110 hc         1 S1H       0.030033
@<TRIPOS>BOND
     1     1     2 1   
     2     1    27 1   
     3     1    28 1   
     4     2     3 1   
     5     2     5 1   
     6     2    29 1   
     7     3     4 1   
     8     3     7 1   
     9     5     6 1   
    10     5    30 1   
    11     5    31 1   
    12     6    24 1   
    13     8     9 1   
    14     8    24 1   
    15     8    32 1   
    16     8    33 1   
    17     9    10 1   
    18     9    34 1   
    19     9    35 1   
    20    10    11 1   
    21    10    36 1   
    22    10    37 1   
    23    11    12 1   
    24    11    38 1   
    25    11    39 1   
    26    12    13 1   
    27    12    40 1   
    28    12    41 1   
    29    13    14 1   
    30    13    42 1   
    31    13    43 1   
    32    14    15 1   
    33    14    44 1   
    34    14    45 1   
    35    15    16 1   
    36    15    46 1   
    37    15    47 1   
    38    16    17 1   
    39    16    48 1   
    40    16    49 1   
    41    17    18 1   
    42    17    50 1   
    43    17    51 1   
    44    18    19 1   
    45    18    52 1   
    46    18    53 1   
    47    19    20 1   
    48    19    54 1   
    49    19    55 1   
    50    20    21 1   
    51    20    56 1   
    52    20    57 1   
    53    21    22 1   
    54    21    58 1   
    55    21    59 1   
    56    22    23 1   
    57    22    60 1   
    58    22    61 1   
    59    23    62 1   
    60    23    63 1   
    61    23    64 1   
    62    24    25 2   
    63    24    26 2   
@<TRIPOS>SUBSTRUCTURE
     1 S1H         1 TEMP              0 ****  ****    0 ROOT
