@<TRIPOS>MOLECULE
S1H
   64    63     1     0     0
SMALL
bcc


@<TRIPOS>ATOM
      1 N           11.3580    16.8500    16.3750 n8         1 S1H      -0.869800
      2 CA          12.6170    16.1390    16.2940 c3         1 S1H       0.014500
      3 C           12.4430    14.6050    16.4840 c          1 S1H       0.947600
      4 O           11.3280    14.1950    16.8470 o          1 S1H      -0.824300
      5 CB          13.6910    16.6410    17.2490 c3         1 S1H       0.151400
      6 OG          13.2400    16.3350    18.5910 os         1 S1H      -0.515500
      7 OXT         13.4680    13.9300    16.2640 o          1 S1H      -0.824300
      8 C1          12.9460    16.4210    21.1320 c3         1 S1H      -0.196600
      9 C2          11.5390    16.9950    21.0620 c3         1 S1H      -0.043400
     10 C3          10.7090    16.5410    22.2590 c3         1 S1H      -0.069400
     11 C4           9.2890    17.0900    22.2200 c3         1 S1H      -0.077400
     12 C5           8.4400    16.6430    23.4040 c3         1 S1H      -0.073400
     13 C6           7.0220    17.1970    23.3650 c3         1 S1H      -0.075400
     14 C7           6.1540    16.7350    24.5290 c3         1 S1H      -0.073400
     15 C8           4.7370    17.2910    24.4770 c3         1 S1H      -0.074400
     16 C9           3.8480    16.8020    25.6140 c3         1 S1H      -0.074400
     17 C10          2.4310    17.3590    25.5500 c3         1 S1H      -0.076400
     18 C11          1.5270    16.8310    26.6590 c3         1 S1H      -0.072400
     19 C12          0.0840    17.3200    26.5790 c3         1 S1H      -0.072400
     20 C13         -0.0910    18.8140    26.8290 c3         1 S1H      -0.076400
     21 C14         -1.5480    19.2560    26.7910 c3         1 S1H      -0.076400
     22 C15         -1.7370    20.7430    27.0670 c3         1 S1H      -0.075400
     23 C16         -3.1950    21.1760    27.0120 c3         1 S1H      -0.088100
     24 S1          14.0230    16.9760    19.8270 s6         1 S1H       1.344500
     25 O1S         13.9880    18.4250    19.7250 o          1 S1H      -0.642300
     26 O2S         15.3230    16.3390    19.9520 o          1 S1H      -0.642300
     27 H           11.5180    17.8490    16.4240 hn         1 S1H       0.324800
     28 H2          10.8730    16.5870    17.2230 hn         1 S1H       0.324800
     29 HA          13.0390    16.2980    15.2940 h1         1 S1H       0.055700
     30 HB2         14.6430    16.1430    17.0630 h1         1 S1H       0.041700
     31 HB3         13.8280    17.7200    17.1450 h1         1 S1H       0.041700
     32 H11         13.4550    16.7250    22.0500 h1         1 S1H       0.097200
     33 H12         12.9480    15.3300    21.0970 h1         1 S1H       0.097200
     34 H21         11.5860    18.0860    21.0450 hc         1 S1H       0.061700
     35 H22         11.0510    16.6790    20.1380 hc         1 S1H       0.061700
     36 H31         10.6770    15.4470    22.2870 hc         1 S1H       0.036700
     37 H32         11.2000    16.8590    23.1840 hc         1 S1H       0.036700
     38 H41          9.3240    18.1850    22.1910 hc         1 S1H       0.041200
     39 H42          8.8050    16.7770    21.2900 hc         1 S1H       0.041200
     40 H51          8.4020    15.5490    23.4290 hc         1 S1H       0.034700
     41 H52          8.9260    16.9500    24.3370 hc         1 S1H       0.034700
     42 H61          7.0600    18.2920    23.3540 hc         1 S1H       0.038200
     43 H62          6.5460    16.9020    22.4230 hc         1 S1H       0.038200
     44 H71          6.1140    15.6400    24.5370 hc         1 S1H       0.035700
     45 H72          6.6260    17.0270    25.4740 hc         1 S1H       0.035700
     46 H81          4.7760    18.3860    24.4920 hc         1 S1H       0.037200
     47 H82          4.2780    17.0190    23.5200 hc         1 S1H       0.037200
     48 H91          3.8080    15.7070    25.5950 hc         1 S1H       0.035700
     49 H92          4.3010    17.0710    26.5740 hc         1 S1H       0.035700
     50 H101         2.4760    18.4520    25.5880 hc         1 S1H       0.037700
     51 H102         1.9880    17.1090    24.5790 hc         1 S1H       0.037700
     52 H111         1.5350    15.7370    26.6250 hc         1 S1H       0.036700
     53 H112         1.9490    17.1040    27.6330 hc         1 S1H       0.036700
     54 H121        -0.3320    17.0650    25.5980 hc         1 S1H       0.035700
     55 H122        -0.5180    16.7710    27.3110 hc         1 S1H       0.035700
     56 H131         0.3410    19.0670    27.8030 hc         1 S1H       0.038200
     57 H132         0.4750    19.3890    26.0890 hc         1 S1H       0.038200
     58 H141        -1.9760    19.0120    25.8120 hc         1 S1H       0.035200
     59 H142        -2.1230    18.6770    27.5230 hc         1 S1H       0.035200
     60 H151        -1.3180    20.9830    28.0490 hc         1 S1H       0.036700
     61 H152        -1.1560    21.3200    26.3410 hc         1 S1H       0.036700
     62 H161        -3.3060    22.2430    27.2130 hc         1 S1H       0.030033
     63 H162        -3.6270    20.9780    26.0300 hc         1 S1H       0.030033
     64 H163        -3.7940    20.6380    27.7490 hc         1 S1H       0.030033
@<TRIPOS>BOND
     1     1     2 1   
     2     1    27 1   
     3     1    28 1   
     4     2     3 1   
     5     2     5 1   
     6     2    29 1   
     7     3     4 1   
     8     3     7 1   
     9     5     6 1   
    10     5    30 1   
    11     5    31 1   
    12     6    24 1   
    13     8     9 1   
    14     8    24 1   
    15     8    32 1   
    16     8    33 1   
    17     9    10 1   
    18     9    34 1   
    19     9    35 1   
    20    10    11 1   
    21    10    36 1   
    22    10    37 1   
    23    11    12 1   
    24    11    38 1   
    25    11    39 1   
    26    12    13 1   
    27    12    40 1   
    28    12    41 1   
    29    13    14 1   
    30    13    42 1   
    31    13    43 1   
    32    14    15 1   
    33    14    44 1   
    34    14    45 1   
    35    15    16 1   
    36    15    46 1   
    37    15    47 1   
    38    16    17 1   
    39    16    48 1   
    40    16    49 1   
    41    17    18 1   
    42    17    50 1   
    43    17    51 1   
    44    18    19 1   
    45    18    52 1   
    46    18    53 1   
    47    19    20 1   
    48    19    54 1   
    49    19    55 1   
    50    20    21 1   
    51    20    56 1   
    52    20    57 1   
    53    21    22 1   
    54    21    58 1   
    55    21    59 1   
    56    22    23 1   
    57    22    60 1   
    58    22    61 1   
    59    23    62 1   
    60    23    63 1   
    61    23    64 1   
    62    24    25 2   
    63    24    26 2   
@<TRIPOS>SUBSTRUCTURE
     1 S1H         1 TEMP              0 ****  ****    0 ROOT
