@<TRIPOS>MOLECULE
S1I
   55    58     1     0     0
SMALL
No Charge or Current Charge


@<TRIPOS>ATOM
      1 C10        -20.1120   -22.7810    -5.8070 ca         1 S1I      -0.124000
      2 C11        -20.0320   -23.8240    -4.8720 ca         1 S1I      -0.085000
      3 C12        -19.5880   -23.5670    -3.5670 ca         1 S1I      -0.131000
      4 C13        -19.2140   -22.2680    -3.1880 ca         1 S1I      -0.024000
      5 C15        -18.0970   -21.0270    -1.2270 c          1 S1I       0.582100
      6 C17        -17.8400   -21.2170     0.3240 c6         1 S1I       0.106000
      7 C18        -17.4580   -22.7020     0.6860 c6         1 S1I      -0.075400
      8 C19        -17.2980   -22.9220     2.2190 c6         1 S1I      -0.117900
      9 C20        -18.5990   -22.5520     2.9650 c6         1 S1I       0.170000
     10 C23        -19.1190   -21.1440     2.5950 c6         1 S1I      -0.117900
     11 C24        -19.2050   -20.9570     1.0520 c6         1 S1I      -0.075400
     12 C04        -19.6690   -18.1440    -7.2750 cc         1 S1I      -0.285900
     13 C05        -19.5050   -18.9900    -6.2010 cd         1 S1I      -0.102000
     14 C06        -19.8540   -20.3570    -6.4470 cd         1 S1I      -0.065000
     15 C07        -20.2950   -20.5280    -7.7420 cc         1 S1I      -0.249000
     16 C09        -19.7560   -21.4600    -5.4540 ca         1 S1I       0.019000
     17 C26        -15.6210   -20.0780     0.3370 ca         1 S1I       0.116100
     18 C27        -15.3180   -18.8480    -0.2730 ca         1 S1I      -0.156000
     19 C28        -14.0370   -18.6100    -0.8020 ca         1 S1I      -0.079500
     20 C29        -13.0440   -19.5980    -0.7000 ca         1 S1I      -0.135000
     21 C30        -13.3280   -20.8160    -0.0580 ca         1 S1I      -0.079500
     22 C31        -14.6110   -21.0520     0.4690 ca         1 S1I      -0.156000
     23 C32        -19.3110   -21.2210    -4.1320 ca         1 S1I      -0.154000
     24 F21        -18.3770   -22.6180     4.3510 f          1 S1I      -0.124500
     25 F22        -19.5920   -23.5070     2.6780 f          1 S1I      -0.124500
     26 N01        -18.7400   -16.1010    -6.4010 nv         1 S1I      -1.077200
     27 N03        -19.9660   -16.0010    -8.2690 n2         1 S1I      -0.841100
     28 N14        -18.7810   -22.0710    -1.8470 ns         1 S1I      -0.137000
     29 O16        -17.6540   -20.0700    -1.8570 o          1 S1I      -0.578100
     30 O25        -16.8820   -20.2510     0.8730 os         1 S1I      -0.377100
     31 S08        -20.3050   -19.0250    -8.6530 ss         1 S1I       0.322000
     32 H101       -20.4590   -23.0180    -6.8080 ha         1 S1I       0.116000
     33 H111       -20.3140   -24.8350    -5.1600 ha         1 S1I       0.117000
     34 H121       -19.5300   -24.3860    -2.8520 ha         1 S1I       0.148000
     35 H182       -18.2320   -23.3960     0.3320 hc         1 S1I       0.074950
     36 H181       -16.5490   -23.0060     0.1530 hc         1 S1I       0.074950
     37 H192       -17.0340   -23.9680     2.4240 hc         1 S1I       0.075700
     38 H191       -16.4720   -22.3120     2.6070 hc         1 S1I       0.075700
     39 H232       -18.4520   -20.3840     3.0250 hc         1 S1I       0.075700
     40 H231       -20.1050   -20.9790     3.0500 hc         1 S1I       0.075700
     41 H242       -19.5440   -19.9350     0.8320 hc         1 S1I       0.074950
     42 H241       -19.9850   -21.6200     0.6510 hc         1 S1I       0.074950
     43 H051       -19.1410   -18.6310    -5.2460 ha         1 S1I       0.131000
     44 H071       -20.6300   -21.4230    -8.2470 h4         1 S1I       0.152000
     45 H271       -16.0860   -18.0820    -0.3480 ha         1 S1I       0.126500
     46 H281       -13.8150   -17.6610    -1.2860 ha         1 S1I       0.117500
     47 H291       -12.0520   -19.4160    -1.1050 ha         1 S1I       0.118000
     48 H301       -12.5520   -21.5720     0.0420 ha         1 S1I       0.117500
     49 H311       -14.7950   -21.9790     0.9980 ha         1 S1I       0.126500
     50 H321       -19.0550   -20.2140    -3.8320 ha         1 S1I       0.113000
     51 H012       -18.2010   -16.7280    -5.8170 hn         1 S1I       0.466000
     52 H031       -19.9190   -15.0260    -7.9550 hn         1 S1I       0.376400
     53 H141       -19.0350   -22.8280    -1.2260 hn         1 S1I       0.168000
     54 H011       -18.2610   -15.2510    -6.6710 hn         1 S1I       0.466000
     55 C02        -19.4340   -16.7160    -7.3720 ce         1 S1I       0.693800
@<TRIPOS>BOND
     1     1     2 ar  
     2     1    16 ar  
     3     1    32 1   
     4     2     3 ar  
     5     2    33 1   
     6     3     4 ar  
     7     3    34 1   
     8     4    23 ar  
     9     4    28 1   
    10     5     6 1   
    11     5    28 1   
    12     5    29 2   
    13     6     7 1   
    14     6    11 1   
    15     6    30 1   
    16     7     8 1   
    17     7    35 1   
    18     7    36 1   
    19     8     9 1   
    20     8    37 1   
    21     8    38 1   
    22     9    10 1   
    23     9    24 1   
    24     9    25 1   
    25    10    11 1   
    26    10    39 1   
    27    10    40 1   
    28    11    41 1   
    29    11    42 1   
    30    12    13 2   
    31    12    31 1   
    32    12    55 1   
    33    13    14 1   
    34    13    43 1   
    35    14    15 2   
    36    14    16 1   
    37    15    31 1   
    38    15    44 1   
    39    16    23 ar  
    40    17    18 ar  
    41    17    22 ar  
    42    17    30 1   
    43    18    19 ar  
    44    18    45 1   
    45    19    20 ar  
    46    19    46 1   
    47    20    21 ar  
    48    20    47 1   
    49    21    22 ar  
    50    21    48 1   
    51    22    49 1   
    52    23    50 1   
    53    26    51 1   
    54    26    54 1   
    55    26    55 1   
    56    27    52 1   
    57    27    55 2   
    58    28    53 1   
@<TRIPOS>SUBSTRUCTURE
     1 S1I         1 TEMP              0 ****  ****    0 ROOT
