@<TRIPOS>MOLECULE
S1I
   55    58     1     0     0
SMALL
abcg2


@<TRIPOS>ATOM
      1 C10        -19.3010   -22.6420    -6.0250 ca         1 S1I      -0.124000
      2 C11        -19.0070   -23.7130    -5.1950 ca         1 S1I      -0.085000
      3 C12        -18.7350   -23.5320    -3.8420 ca         1 S1I      -0.131000
      4 C13        -18.7610   -22.2380    -3.3190 ca         1 S1I      -0.024000
      5 C15        -18.1990   -22.7550    -0.9410 c          1 S1I       0.582100
      6 C17        -18.0240   -22.0110     0.4020 c6         1 S1I       0.106000
      7 C18        -17.0990   -22.7730     1.3560 c6         1 S1I      -0.075400
      8 C19        -17.0360   -22.1100     2.7320 c6         1 S1I      -0.117900
      9 C20        -18.4170   -21.9480     3.3180 c6         1 S1I       0.170000
     10 C23        -19.3870   -21.2320     2.4110 c6         1 S1I      -0.117900
     11 C24        -19.4250   -21.8780     1.0250 c6         1 S1I      -0.075400
     12 C04        -19.6890   -17.9340    -7.0060 cc         1 S1I      -0.285900
     13 C05        -19.2540   -18.8420    -6.0790 cd         1 S1I      -0.102000
     14 C06        -19.6570   -20.1830    -6.3590 cd         1 S1I      -0.065000
     15 C07        -20.3980   -20.2440    -7.5170 cc         1 S1I      -0.249000
     16 C09        -19.3340   -21.3410    -5.5080 ca         1 S1I       0.019000
     17 C26        -16.3250   -20.3370    -0.2310 ca         1 S1I       0.116100
     18 C27        -15.9250   -19.0260     0.0290 ca         1 S1I      -0.156000
     19 C28        -14.6840   -18.5790    -0.4020 ca         1 S1I      -0.079500
     20 C29        -13.8270   -19.4350    -1.0900 ca         1 S1I      -0.135000
     21 C30        -14.2310   -20.7390    -1.3440 ca         1 S1I      -0.079500
     22 C31        -15.4770   -21.1980    -0.9240 ca         1 S1I      -0.156000
     23 C32        -19.0600   -21.1580    -4.1530 ca         1 S1I      -0.154000
     24 F21        -18.3390   -21.2870     4.5330 f          1 S1I      -0.124500
     25 F22        -18.9270   -23.2040     3.6350 f          1 S1I      -0.124500
     26 N01        -18.5740   -15.9810    -6.1540 nv         1 S1I      -1.077200
     27 N03        -20.1670   -15.7830    -7.8910 n2         1 S1I      -0.841100
     28 N14        -18.5030   -21.9330    -1.9720 ns         1 S1I      -0.137000
     29 O16        -18.1220   -23.9750    -1.0070 o          1 S1I      -0.578100
     30 O25        -17.5940   -20.6510     0.1960 os         1 S1I      -0.377100
     31 S08        -20.6110   -18.7100    -8.2480 ss         1 S1I       0.322000
     32 H101       -19.4890   -22.8110    -7.0770 ha         1 S1I       0.116000
     33 H111       -18.9800   -24.7150    -5.6050 ha         1 S1I       0.117000
     34 H121       -18.5060   -24.3700    -3.2070 ha         1 S1I       0.148000
     35 H182       -17.4860   -23.7870     1.4460 hc         1 S1I       0.074950
     36 H181       -16.0950   -22.8550     0.9470 hc         1 S1I       0.074950
     37 H192       -16.4300   -22.7060     3.4160 hc         1 S1I       0.075700
     38 H191       -16.5880   -21.1170     2.6620 hc         1 S1I       0.075700
     39 H232       -19.0610   -20.1940     2.3340 hc         1 S1I       0.075700
     40 H231       -20.3780   -21.2450     2.8670 hc         1 S1I       0.075700
     41 H242       -20.0560   -21.2850     0.3630 hc         1 S1I       0.074950
     42 H241       -19.8600   -22.8770     1.0850 hc         1 S1I       0.074950
     43 H051       -18.6610   -18.5700    -5.2180 ha         1 S1I       0.131000
     44 H071       -20.8500   -21.1140    -7.9650 h4         1 S1I       0.152000
     45 H271       -16.6000   -18.3720     0.5670 ha         1 S1I       0.126500
     46 H281       -14.3860   -17.5590    -0.1950 ha         1 S1I       0.117500
     47 H291       -12.8580   -19.0880    -1.4230 ha         1 S1I       0.118000
     48 H301       -13.5780   -21.4170    -1.8790 ha         1 S1I       0.117500
     49 H311       -15.7610   -22.2150    -1.1480 ha         1 S1I       0.126500
     50 H321       -19.0930   -20.1650    -3.7230 ha         1 S1I       0.113000
     51 H012       -17.8590   -16.5930    -5.7930 hn         1 S1I       0.466000
     52 H031       -19.9110   -14.7970    -7.8480 hn         1 S1I       0.376400
     53 H141       -18.5220   -20.9500    -1.7400 hn         1 S1I       0.168000
     54 H011       -18.2870   -15.0200    -6.2710 hn         1 S1I       0.466000
     55 C02        -19.4750   -16.4790    -7.0570 ce         1 S1I       0.693800
@<TRIPOS>BOND
     1     1     2 ar  
     2     1    16 ar  
     3     1    32 1   
     4     2     3 ar  
     5     2    33 1   
     6     3     4 ar  
     7     3    34 1   
     8     4    23 ar  
     9     4    28 1   
    10     5     6 1   
    11     5    28 1   
    12     5    29 2   
    13     6     7 1   
    14     6    11 1   
    15     6    30 1   
    16     7     8 1   
    17     7    35 1   
    18     7    36 1   
    19     8     9 1   
    20     8    37 1   
    21     8    38 1   
    22     9    10 1   
    23     9    24 1   
    24     9    25 1   
    25    10    11 1   
    26    10    39 1   
    27    10    40 1   
    28    11    41 1   
    29    11    42 1   
    30    12    13 2   
    31    12    31 1   
    32    12    55 1   
    33    13    14 1   
    34    13    43 1   
    35    14    15 2   
    36    14    16 1   
    37    15    31 1   
    38    15    44 1   
    39    16    23 ar  
    40    17    18 ar  
    41    17    22 ar  
    42    17    30 1   
    43    18    19 ar  
    44    18    45 1   
    45    19    20 ar  
    46    19    46 1   
    47    20    21 ar  
    48    20    47 1   
    49    21    22 ar  
    50    21    48 1   
    51    22    49 1   
    52    23    50 1   
    53    26    51 1   
    54    26    54 1   
    55    26    55 1   
    56    27    52 1   
    57    27    55 2   
    58    28    53 1   
@<TRIPOS>SUBSTRUCTURE
     1 S1I         1 TEMP              0 ****  ****    0 ROOT
