@<TRIPOS>MOLECULE
S1J
   30    31     1     0     0
SMALL
No Charge or Current Charge


@<TRIPOS>ATOM
      1 N1           9.5890    24.6280     1.8610 nb         1 S1J      -0.674000
      2 N3          14.9070    24.4270    -0.7350 nv         1 S1J      -1.060000
      3 C4          10.4440    23.5800     1.7920 ca         1 S1J       0.334900
      4 C5          10.0390    25.7710     2.4280 ca         1 S1J       0.324900
      5 C7          13.2010    22.6860    -0.3120 ca         1 S1J       0.231000
      6 C8          12.1550    21.9000    -0.8260 ca         1 S1J      -0.173000
      7 C10         12.4310    22.9050    -3.0430 ca         1 S1J      -0.137600
      8 C13         12.0170    23.0180    -4.5030 c          1 S1J       0.714600
      9 C1          11.3390    25.9070     2.9440 ca         1 S1J      -0.161000
     10 C11         13.4860    23.6950    -2.5250 ca         1 S1J      -0.102000
     11 C12         13.8780    23.6030    -1.1770 ca         1 S1J       0.152000
     12 C2          12.2220    24.8160     2.8740 ca         1 S1J      -0.057000
     13 C3          11.7630    23.6250     2.2830 ca         1 S1J      -0.155300
     14 C9          11.7710    22.0080    -2.1730 ca         1 S1J      -0.078000
     15 N2          13.5790    22.5390     1.0370 nu         1 S1J      -0.947200
     16 O1          11.1020    22.3150    -4.9080 o          1 S1J      -0.724000
     17 O2          12.6130    23.8070    -5.2220 o          1 S1J      -0.724000
     18 H1          15.0020    24.6050     0.2610 hn         1 S1J       0.409000
     19 H2          15.2760    25.1430    -1.3590 hn         1 S1J       0.409000
     20 H3          10.0530    22.6740     1.3300 h4         1 S1J       0.011100
     21 H4           9.3360    26.6010     2.4720 h4         1 S1J       0.009100
     22 H5          12.0460    21.4990     2.0730 h1         1 S1J       0.047700
     23 H6          13.2340    22.2990     3.1100 h1         1 S1J       0.047700
     24 H7          11.6390    21.1900    -0.1880 ha         1 S1J       0.091000
     25 H8          11.6520    26.8460     3.3910 ha         1 S1J       0.118000
     26 H9          14.0040    24.3930    -3.1780 ha         1 S1J       0.124000
     27 H10         13.2340    24.8950     3.2660 ha         1 S1J       0.126000
     28 H11         10.9590    21.3850    -2.5400 ha         1 S1J       0.127000
     29 H12         14.4850    22.9520     1.2540 hn         1 S1J       0.457000
     30 C6          12.6600    22.4050     2.1780 c3         1 S1J       0.261100
@<TRIPOS>BOND
     1     1     3 ar  
     2     1     4 ar  
     3     2    11 1   
     4     2    18 1   
     5     2    19 1   
     6     3    13 ar  
     7     3    20 1   
     8     4     9 ar  
     9     4    21 1   
    10     5     6 ar  
    11     5    11 ar  
    12     5    15 1   
    13     6    14 ar  
    14     6    24 1   
    15     7     8 1   
    16     7    10 ar  
    17     7    14 ar  
    18     8    16 1   
    19     8    17 1   
    20     9    12 ar  
    21     9    25 1   
    22    10    11 ar  
    23    10    26 1   
    24    12    13 ar  
    25    12    27 1   
    26    13    30 1   
    27    14    28 1   
    28    15    29 1   
    29    15    30 1   
    30    22    30 1   
    31    23    30 1   
@<TRIPOS>SUBSTRUCTURE
     1 S1J         1 TEMP              0 ****  ****    0 ROOT
