@<TRIPOS>MOLECULE
S1J
   30    31     1     0     0
SMALL
abcg2


@<TRIPOS>ATOM
      1 N1           9.3630    24.0020     2.9310 nb         1 S1J      -0.674000
      2 N3          15.4190    23.9080    -0.7580 nv         1 S1J      -1.060000
      3 C4          10.3670    23.1680     2.6890 ca         1 S1J       0.334900
      4 C5           9.5910    25.3020     2.7810 ca         1 S1J       0.324900
      5 C7          13.2590    22.9360    -0.2840 ca         1 S1J       0.231000
      6 C8          12.0100    22.5160    -0.7380 ca         1 S1J      -0.173000
      7 C10         12.5310    23.1870    -3.0040 ca         1 S1J      -0.137600
      8 C13         12.1470    23.3380    -4.4680 c          1 S1J       0.714600
      9 C1          10.8180    25.8120     2.3840 ca         1 S1J      -0.161000
     10 C11         13.7910    23.5820    -2.5500 ca         1 S1J      -0.102000
     11 C12         14.1710    23.4660    -1.2240 ca         1 S1J       0.152000
     12 C2          11.8570    24.9280     2.1370 ca         1 S1J      -0.057000
     13 C3          11.6400    23.5650     2.2960 ca         1 S1J      -0.155300
     14 C9          11.6550    22.6390    -2.0760 ca         1 S1J      -0.078000
     15 N2          13.6710    22.8290     1.0330 nu         1 S1J      -0.947200
     16 O1          11.0000    22.9630    -4.7860 o          1 S1J      -0.724000
     17 O2          13.0080    23.8240    -5.2300 o          1 S1J      -0.724000
     18 H1          15.9360    23.1890    -0.2660 hn         1 S1J       0.409000
     19 H2          16.0020    24.2610    -1.5030 hn         1 S1J       0.409000
     20 H3          10.1500    22.1090     2.8100 h4         1 S1J       0.011100
     21 H4           8.7590    25.9680     2.9820 h4         1 S1J       0.009100
     22 H5          12.2860    21.5590     1.9290 h1         1 S1J       0.047700
     23 H6          13.3140    22.4540     3.0110 h1         1 S1J       0.047700
     24 H7          11.2920    22.0970    -0.0440 ha         1 S1J       0.091000
     25 H8          10.9530    26.8790     2.2710 ha         1 S1J       0.118000
     26 H9          14.5010    23.9910    -3.2600 ha         1 S1J       0.124000
     27 H10         12.8240    25.3010     1.8210 ha         1 S1J       0.126000
     28 H11         10.6750    22.3100    -2.3930 ha         1 S1J       0.127000
     29 H12         14.3900    23.4920     1.2840 hn         1 S1J       0.457000
     30 C6          12.7360    22.5430     2.0890 c3         1 S1J       0.261100
@<TRIPOS>BOND
     1     1     3 ar  
     2     1     4 ar  
     3     2    11 1   
     4     2    18 1   
     5     2    19 1   
     6     3    13 ar  
     7     3    20 1   
     8     4     9 ar  
     9     4    21 1   
    10     5     6 ar  
    11     5    11 ar  
    12     5    15 1   
    13     6    14 ar  
    14     6    24 1   
    15     7     8 1   
    16     7    10 ar  
    17     7    14 ar  
    18     8    16 1   
    19     8    17 1   
    20     9    12 ar  
    21     9    25 1   
    22    10    11 ar  
    23    10    26 1   
    24    12    13 ar  
    25    12    27 1   
    26    13    30 1   
    27    14    28 1   
    28    15    29 1   
    29    15    30 1   
    30    22    30 1   
    31    23    30 1   
@<TRIPOS>SUBSTRUCTURE
     1 S1J         1 TEMP              0 ****  ****    0 ROOT
