@<TRIPOS>MOLECULE
S1L
   70    75     1     0     0
SMALL
abcg2


@<TRIPOS>ATOM
      1 N1         -19.8550     5.3540    27.2520 ns         1 S1L      -0.158000
      2 N3         -20.4340     8.5910    28.9720 ns         1 S1L      -0.135000
      3 C4         -20.4330     5.1070    28.4620 c          1 S1L       0.609100
      4 C5         -18.5550     5.8620    27.0490 ca         1 S1L      -0.084000
      5 C6         -17.4670     5.2890    27.6620 ca         1 S1L       0.329900
      6 C7         -16.0030     6.7920    26.7480 ca         1 S1L       0.356900
      7 C8         -17.0340     7.4570    26.0450 ca         1 S1L      -0.082000
      8 C10        -17.8040     9.2090    24.5740 ca         1 S1L      -0.109000
      9 C13        -18.3680     6.9870    26.2010 ca         1 S1L      -0.022000
     10 C15        -23.1700     4.9550    30.5680 ca         1 S1L      -0.063300
     11 C17        -23.4530     2.9700    31.9320 ca         1 S1L      -0.091000
     12 C20        -22.7600     2.2390    30.9750 ca         1 S1L       0.127000
     13 C21        -19.1120     9.0550    28.8370 ca         1 S1L       0.008000
     14 C22        -18.7860    10.1580    28.0500 ca         1 S1L      -0.204000
     15 C24        -16.0570    12.5800    27.4850 c6         1 S1L       0.165300
     16 C26        -18.7090    13.5030    27.0900 c6         1 S1L       0.117600
     17 C28        -16.4670     9.8900    28.6480 ca         1 S1L      -0.190000
     18 CL         -22.4990     0.5230    31.2260 cl         1 S1L      -0.207000
     19 C16        -23.6510     4.3250    31.7150 ca         1 S1L      -0.100000
     20 C19        -22.2740     2.8380    29.8270 ca         1 S1L      -0.086000
     21 C18        -22.4770     4.2020    29.6180 ca         1 S1L      -0.049300
     22 C3         -21.9420     4.8510    28.3660 c6         1 S1L      -0.094400
     23 O1         -19.8240     5.1380    29.5210 o          1 S1L      -0.562100
     24 C12        -19.4100     7.6700    25.5330 ca         1 S1L      -0.112000
     25 C11        -19.1280     8.7530    24.7380 ca         1 S1L      -0.084000
     26 C9         -16.7760     8.5750    25.2220 ca         1 S1L      -0.064000
     27 N2         -16.2000     5.7500    27.5220 nb         1 S1L      -0.653000
     28 C2         -22.6580     6.1830    28.1110 c6         1 S1L       0.170800
     29 C14        -23.4400     6.4260    30.3640 c6         1 S1L       0.222100
     30 N          -22.5960     6.9930    29.3210 n3         1 S1L      -0.744600
     31 C1         -22.8390     8.3990    29.0700 c3         1 S1L       0.080800
     32 C          -21.6000     9.1560    28.5880 c          1 S1L       0.595100
     33 O          -21.7190    10.2060    27.9610 o          1 S1L      -0.606100
     34 C30        -18.1220     8.3630    29.5340 ca         1 S1L      -0.188000
     35 C29        -16.8080     8.7970    29.4290 ca         1 S1L      -0.054000
     36 C23        -17.4550    10.5880    27.9320 ca         1 S1L       0.323000
     37 N4         -17.1020    11.6370    27.0800 nh         1 S1L      -0.799400
     38 C27        -18.1230    12.3360    26.3060 c6         1 S1L       0.165300
     39 O2         -17.6740    14.4070    27.4880 os         1 S1L      -0.459000
     40 C25        -16.6650    13.7480    28.2540 c6         1 S1L       0.117600
     41 H1         -20.4670     5.3430    26.4500 hn         1 S1L       0.148000
     42 H2         -20.5600     7.7240    29.4840 hn         1 S1L       0.184000
     43 H3         -17.6000     4.4270    28.3000 h4         1 S1L       0.036100
     44 H4         -14.9840     7.1550    26.6470 h4         1 S1L       0.020100
     45 H5         -17.6080    10.0720    23.9520 ha         1 S1L       0.117000
     46 H6         -23.8260     2.4900    32.8260 ha         1 S1L       0.133000
     47 H7         -19.5820    10.6650    27.5400 ha         1 S1L       0.142000
     48 H9         -15.5660    12.9560    26.5830 h1         1 S1L       0.062950
     49 H10        -19.4030    14.0770    26.4750 h1         1 S1L       0.056200
     50 H11        -19.2380    13.1370    27.9780 h1         1 S1L       0.056200
     51 H12        -15.4270    10.1680    28.5610 ha         1 S1L       0.111000
     52 H13        -24.1890     4.9050    32.4560 ha         1 S1L       0.119000
     53 H14        -21.7370     2.2530    29.0920 ha         1 S1L       0.130000
     54 H15        -22.1190     4.1930    27.5120 hc         1 S1L       0.072700
     55 H16        -20.4360     7.3550    25.6580 ha         1 S1L       0.103000
     56 H17        -19.9360     9.2760    24.2410 ha         1 S1L       0.114000
     57 H18        -15.7570     8.9280    25.1260 ha         1 S1L       0.120000
     58 H19        -22.1830     6.7240    27.2950 h1         1 S1L       0.047200
     59 H20        -23.6990     5.9870    27.8120 h1         1 S1L       0.047200
     60 H21        -23.2560     6.9650    31.2950 h1         1 S1L       0.049700
     61 H22        -24.5090     6.5570    30.1230 h1         1 S1L       0.049700
     62 H24        -23.1430     8.8810    30.0030 h1         1 S1L       0.068200
     63 H25        -23.6390     8.5780    28.3400 h1         1 S1L       0.068200
     64 H26        -18.3800     7.4970    30.1280 ha         1 S1L       0.133000
     65 H27        -16.0270     8.2580    29.9510 ha         1 S1L       0.117000
     66 H28        -18.8990    11.6480    25.9830 h1         1 S1L       0.062950
     67 H29        -17.6390    12.7270    25.4060 h1         1 S1L       0.062950
     68 H30        -15.9070    14.4990    28.4800 h1         1 S1L       0.056200
     69 H31        -17.0970    13.3850    29.1960 h1         1 S1L       0.056200
     70 H8         -15.3030    12.0910    28.0940 h1         1 S1L       0.062950
@<TRIPOS>BOND
     1     1     3 1   
     2     1     4 1   
     3     1    41 1   
     4     2    13 1   
     5     2    32 1   
     6     2    42 1   
     7     3    22 1   
     8     3    23 2   
     9     4     5 ar  
    10     4     9 ar  
    11     5    27 ar  
    12     5    43 1   
    13     6     7 ar  
    14     6    27 ar  
    15     6    44 1   
    16     7     9 ar  
    17     7    26 ar  
    18     8    25 ar  
    19     8    26 ar  
    20     8    45 1   
    21     9    24 ar  
    22    10    19 ar  
    23    10    21 ar  
    24    10    29 1   
    25    11    12 ar  
    26    11    19 ar  
    27    11    46 1   
    28    12    18 1   
    29    12    20 ar  
    30    13    14 ar  
    31    13    34 ar  
    32    14    36 ar  
    33    14    47 1   
    34    15    37 1   
    35    15    40 1   
    36    15    48 1   
    37    15    70 1   
    38    16    38 1   
    39    16    39 1   
    40    16    49 1   
    41    16    50 1   
    42    17    35 ar  
    43    17    36 ar  
    44    17    51 1   
    45    19    52 1   
    46    20    21 ar  
    47    20    53 1   
    48    21    22 1   
    49    22    28 1   
    50    22    54 1   
    51    24    25 ar  
    52    24    55 1   
    53    25    56 1   
    54    26    57 1   
    55    28    30 1   
    56    28    58 1   
    57    28    59 1   
    58    29    30 1   
    59    29    60 1   
    60    29    61 1   
    61    30    31 1   
    62    31    32 1   
    63    31    62 1   
    64    31    63 1   
    65    32    33 2   
    66    34    35 ar  
    67    34    64 1   
    68    35    65 1   
    69    36    37 1   
    70    37    38 1   
    71    38    66 1   
    72    38    67 1   
    73    39    40 1   
    74    40    68 1   
    75    40    69 1   
@<TRIPOS>SUBSTRUCTURE
     1 S1L         1 TEMP              0 ****  ****    0 ROOT
