@<TRIPOS>MOLECULE
S1L
   70    75     1     0     0
SMALL
No Charge or Current Charge


@<TRIPOS>ATOM
      1 N1         -19.8550     5.7270    27.5380 ns         1 S1L      -0.158000
      2 N3         -20.4410     8.7650    29.6740 ns         1 S1L      -0.135000
      3 C4         -20.5000     5.0030    28.5350 c          1 S1L       0.609100
      4 C5         -18.4730     5.9890    27.3000 ca         1 S1L      -0.084000
      5 C6         -17.4450     5.2040    27.8800 ca         1 S1L       0.329900
      6 C7         -15.7790     6.4410    26.8550 ca         1 S1L       0.356900
      7 C8         -16.7190     7.2770    26.2250 ca         1 S1L      -0.082000
      8 C10        -17.2400     9.1580    24.7700 ca         1 S1L      -0.109000
      9 C13        -18.0960     7.0540    26.4470 ca         1 S1L      -0.022000
     10 C15        -23.3460     4.4630    30.5380 ca         1 S1L      -0.063300
     11 C17        -23.8280     2.1710    31.2260 ca         1 S1L      -0.091000
     12 C20        -23.1670     1.6870    30.0860 ca         1 S1L       0.127000
     13 C21        -19.1760     9.2530    29.2510 ca         1 S1L       0.008000
     14 C22        -19.0040    10.4480    28.5210 ca         1 S1L      -0.204000
     15 C24        -16.3090    12.8880    27.4670 c6         1 S1L       0.165300
     16 C26        -18.5420    13.8760    25.8820 c6         1 S1L       0.117600
     17 C28        -16.6040    10.0990    28.4700 ca         1 S1L      -0.190000
     18 Cl         -23.0540    -0.0460    29.8060 cl         1 S1L      -0.207000
     19 C16        -23.9190     3.5550    31.4510 ca         1 S1L      -0.100000
     20 C19        -22.5950     2.5840    29.1700 ca         1 S1L      -0.086000
     21 C18        -22.6810     3.9720    29.3910 ca         1 S1L      -0.049300
     22 C3         -22.0400     4.9560    28.4040 c6         1 S1L      -0.094400
     23 O1         -19.9020     4.4480    29.4500 o          1 S1L      -0.562100
     24 C12        -19.0410     7.9020    25.8250 ca         1 S1L      -0.112000
     25 C11        -18.6110     8.9470    24.9900 ca         1 S1L      -0.084000
     26 C9         -16.2940     8.3270    25.3900 ca         1 S1L      -0.064000
     27 N2         -16.1270     5.4180    27.6660 nb         1 S1L      -0.653000
     28 C2         -22.6340     6.3770    28.5240 c6         1 S1L       0.170800
     29 C14        -23.4780     5.9740    30.7830 c6         1 S1L       0.222100
     30 N          -22.5810     6.8130    29.9390 n3         1 S1L      -0.744600
     31 C1         -22.8010     8.2850    30.1290 c3         1 S1L       0.080800
     32 C          -21.7390     9.2270    29.5020 c          1 S1L       0.595100
     33 O          -22.0440    10.2540    28.9000 o          1 S1L      -0.606100
     34 C30        -18.0430     8.4930    29.5870 ca         1 S1L      -0.188000
     35 C29        -16.7620     8.9120    29.2000 ca         1 S1L      -0.054000
     36 C23        -17.7250    10.8780    28.1230 ca         1 S1L       0.323000
     37 N4         -17.5820    12.0940    27.4090 nh         1 S1L      -0.799400
     38 C27        -18.3960    12.3530    26.1750 c6         1 S1L       0.165300
     39 O2         -17.2470    14.5210    25.8570 os         1 S1L      -0.459000
     40 C25        -16.5390    14.3880    27.1120 c6         1 S1L       0.117600
     41 H1         -20.4760     6.1470    26.8580 hn         1 S1L       0.148000
     42 H2         -20.3970     7.8900    30.1810 hn         1 S1L       0.184000
     43 H3         -17.6700     4.3550    28.5210 h4         1 S1L       0.036100
     44 H4         -14.7110     6.5920    26.7040 h4         1 S1L       0.020100
     45 H5         -16.9110     9.9670    24.1230 ha         1 S1L       0.117000
     46 H6         -24.2710     1.4730    31.9330 ha         1 S1L       0.133000
     47 H7         -19.8540    11.0680    28.2690 ha         1 S1L       0.142000
     48 H9         -15.5710    12.4680    26.7680 h1         1 S1L       0.062950
     49 H10        -19.0370    14.0220    24.9110 h1         1 S1L       0.056200
     50 H11        -19.1660    14.3470    26.6560 h1         1 S1L       0.056200
     51 H12        -15.6070    10.4030    28.1680 ha         1 S1L       0.111000
     52 H13        -24.4390     3.9240    32.3330 ha         1 S1L       0.119000
     53 H14        -22.0820     2.1990    28.2920 ha         1 S1L       0.130000
     54 H15        -22.2480     4.6780    27.3620 hc         1 S1L       0.072700
     55 H16        -20.1080     7.7680    25.9810 ha         1 S1L       0.103000
     56 H17        -19.3430     9.5950    24.5130 ha         1 S1L       0.114000
     57 H18        -15.2330     8.5000    25.2200 ha         1 S1L       0.120000
     58 H19        -22.0850     7.0700    27.8700 h1         1 S1L       0.047200
     59 H20        -23.6760     6.3680    28.1690 h1         1 S1L       0.047200
     60 H21        -23.2810     6.1740    31.8470 h1         1 S1L       0.049700
     61 H22        -24.5270     6.2510    30.6010 h1         1 S1L       0.049700
     62 H24        -22.8050     8.5180    31.2020 h1         1 S1L       0.068200
     63 H25        -23.7790     8.5800    29.7290 h1         1 S1L       0.068200
     64 H26        -18.1530     7.5680    30.1490 ha         1 S1L       0.133000
     65 H27        -15.8910     8.3130    29.4610 ha         1 S1L       0.117000
     66 H28        -19.4030    11.9200    26.2620 h1         1 S1L       0.062950
     67 H29        -17.9180    11.8780    25.3070 h1         1 S1L       0.062950
     68 H30        -15.5710    14.9050    27.0380 h1         1 S1L       0.056200
     69 H31        -17.1220    14.8730    27.9080 h1         1 S1L       0.056200
     70 H8         -15.8720    12.8370    28.4750 h1         1 S1L       0.062950
@<TRIPOS>BOND
     1     1     3 1   
     2     1     4 1   
     3     1    41 1   
     4     2    13 1   
     5     2    32 1   
     6     2    42 1   
     7     3    22 1   
     8     3    23 2   
     9     4     5 ar  
    10     4     9 ar  
    11     5    27 ar  
    12     5    43 1   
    13     6     7 ar  
    14     6    27 ar  
    15     6    44 1   
    16     7     9 ar  
    17     7    26 ar  
    18     8    25 ar  
    19     8    26 ar  
    20     8    45 1   
    21     9    24 ar  
    22    10    19 ar  
    23    10    21 ar  
    24    10    29 1   
    25    11    12 ar  
    26    11    19 ar  
    27    11    46 1   
    28    12    18 1   
    29    12    20 ar  
    30    13    14 ar  
    31    13    34 ar  
    32    14    36 ar  
    33    14    47 1   
    34    15    37 1   
    35    15    40 1   
    36    15    48 1   
    37    15    70 1   
    38    16    38 1   
    39    16    39 1   
    40    16    49 1   
    41    16    50 1   
    42    17    35 ar  
    43    17    36 ar  
    44    17    51 1   
    45    19    52 1   
    46    20    21 ar  
    47    20    53 1   
    48    21    22 1   
    49    22    28 1   
    50    22    54 1   
    51    24    25 ar  
    52    24    55 1   
    53    25    56 1   
    54    26    57 1   
    55    28    30 1   
    56    28    58 1   
    57    28    59 1   
    58    29    30 1   
    59    29    60 1   
    60    29    61 1   
    61    30    31 1   
    62    31    32 1   
    63    31    62 1   
    64    31    63 1   
    65    32    33 2   
    66    34    35 ar  
    67    34    64 1   
    68    35    65 1   
    69    36    37 1   
    70    37    38 1   
    71    38    66 1   
    72    38    67 1   
    73    39    40 1   
    74    40    68 1   
    75    40    69 1   
@<TRIPOS>SUBSTRUCTURE
     1 S1L         1 TEMP              0 ****  ****    0 ROOT
