@<TRIPOS>MOLECULE
S1N
   28    27     1     0     0
SMALL
No Charge or Current Charge


@<TRIPOS>ATOM
      1 C12        184.4660    99.8040   150.8490 c          1 S1N       0.574900
      2 C1         183.4550   100.5950   156.6130 c3         1 S1N      -0.056900
      3 C2         182.3760   101.5170   156.0570 c2         1 S1N      -0.117400
      4 C3         181.1610   101.6330   156.9680 c3         1 S1N      -0.032200
      5 C4         181.4190   102.4410   158.2640 c3         1 S1N      -0.201400
      6 C5         181.8650   103.8760   157.9710 c          1 S1N       0.577900
      7 C8         182.4450   102.1600   154.8750 c2         1 S1N      -0.217200
      8 C9         183.5910   102.1480   153.8810 c3         1 S1N      -0.038200
      9 C10        183.4610   101.0010   152.8580 c3         1 S1N      -0.065400
     10 C11        184.6200   100.9660   151.8330 c3         1 S1N      -0.205400
     11 O6         183.0400   104.2070   157.8430 o          1 S1N      -0.515100
     12 O13        183.7700    99.8660   149.8410 o          1 S1N      -0.512100
     13 H1         185.0300    98.8790   151.1030 h4         1 S1N      -0.020800
     14 H2         183.0340    99.6200   156.8870 hc         1 S1N       0.043033
     15 H3         184.2570   100.3990   155.8940 hc         1 S1N       0.043033
     16 H4         183.9200   101.0210   157.5090 hc         1 S1N       0.043033
     17 H5         180.3320   102.1110   156.4290 hc         1 S1N       0.049700
     18 H6         180.7970   100.6330   157.2360 hc         1 S1N       0.049700
     19 H7         180.4620   102.4870   158.7950 hc         1 S1N       0.068200
     20 H8         182.1740   101.9340   158.8750 hc         1 S1N       0.068200
     21 H9         181.0460   104.6220   157.8750 h4         1 S1N      -0.019800
     22 H10        181.6130   102.7910   154.5560 ha         1 S1N       0.165000
     23 H11        184.5550   102.0640   154.3980 hc         1 S1N       0.048700
     24 H12        183.6240   103.1060   153.3470 hc         1 S1N       0.048700
     25 H13        182.5070   101.1050   152.3240 hc         1 S1N       0.045200
     26 H14        183.4220   100.0440   153.3940 hc         1 S1N       0.045200
     27 H15        185.5520   100.8220   152.3920 hc         1 S1N       0.067700
     28 H16        184.6400   101.9110   151.2790 hc         1 S1N       0.067700
@<TRIPOS>BOND
     1     1    10 1   
     2     1    12 2   
     3     1    13 1   
     4     2     3 1   
     5     2    14 1   
     6     2    15 1   
     7     2    16 1   
     8     3     4 1   
     9     3     7 2   
    10     4     5 1   
    11     4    17 1   
    12     4    18 1   
    13     5     6 1   
    14     5    19 1   
    15     5    20 1   
    16     6    11 2   
    17     6    21 1   
    18     7     8 1   
    19     7    22 1   
    20     8     9 1   
    21     8    23 1   
    22     8    24 1   
    23     9    10 1   
    24     9    25 1   
    25     9    26 1   
    26    10    27 1   
    27    10    28 1   
@<TRIPOS>SUBSTRUCTURE
     1 S1N         1 TEMP              0 ****  ****    0 ROOT
