@<TRIPOS>MOLECULE
S1N
   28    27     1     0     0
SMALL
abcg2


@<TRIPOS>ATOM
      1 C12        184.3120    99.9970   150.6990 c          1 S1N       0.574900
      2 C1         183.5800   100.7130   156.8260 c3         1 S1N      -0.056900
      3 C2         182.4580   101.4500   156.1570 c2         1 S1N      -0.117400
      4 C3         181.1990   101.5860   156.9760 c3         1 S1N      -0.032200
      5 C4         181.3950   102.4690   158.2160 c3         1 S1N      -0.201400
      6 C5         181.8460   103.8390   157.8190 c          1 S1N       0.577900
      7 C8         182.5200   101.9770   154.9310 c2         1 S1N      -0.217200
      8 C9         183.6660   101.9450   153.9700 c3         1 S1N      -0.038200
      9 C10        183.4030   100.9830   152.8100 c3         1 S1N      -0.065400
     10 C11        184.5150   101.0300   151.7610 c3         1 S1N      -0.205400
     11 O6         182.7720   104.4400   158.3070 o          1 S1N      -0.515100
     12 O13        184.3140   100.2050   149.5110 o          1 S1N      -0.512100
     13 H1         184.1550    98.9740   151.0900 h4         1 S1N      -0.020800
     14 H2         183.2530    99.7120   157.1190 hc         1 S1N       0.043033
     15 H3         184.4590   100.6050   156.1930 hc         1 S1N       0.043033
     16 H4         183.8960   101.2160   157.7430 hc         1 S1N       0.043033
     17 H5         180.3970   102.0050   156.3640 hc         1 S1N       0.049700
     18 H6         180.8580   100.6020   157.3090 hc         1 S1N       0.049700
     19 H7         180.4300   102.5790   158.7240 hc         1 S1N       0.068200
     20 H8         182.0920   102.0320   158.9310 hc         1 S1N       0.068200
     21 H9         181.2420   104.2960   157.0130 h4         1 S1N      -0.019800
     22 H10        181.6270   102.4710   154.5510 ha         1 S1N       0.165000
     23 H11        184.6020   101.6690   154.4590 hc         1 S1N       0.048700
     24 H12        183.8180   102.9510   153.5660 hc         1 S1N       0.048700
     25 H13        182.4460   101.2270   152.3420 hc         1 S1N       0.045200
     26 H14        183.3070    99.9670   153.2020 hc         1 S1N       0.045200
     27 H15        185.4720   100.8020   152.2460 hc         1 S1N       0.067700
     28 H16        184.5990   102.0210   151.3110 hc         1 S1N       0.067700
@<TRIPOS>BOND
     1     1    10 1   
     2     1    12 2   
     3     1    13 1   
     4     2     3 1   
     5     2    14 1   
     6     2    15 1   
     7     2    16 1   
     8     3     4 1   
     9     3     7 2   
    10     4     5 1   
    11     4    17 1   
    12     4    18 1   
    13     5     6 1   
    14     5    19 1   
    15     5    20 1   
    16     6    11 2   
    17     6    21 1   
    18     7     8 1   
    19     7    22 1   
    20     8     9 1   
    21     8    23 1   
    22     8    24 1   
    23     9    10 1   
    24     9    25 1   
    25     9    26 1   
    26    10    27 1   
    27    10    28 1   
@<TRIPOS>SUBSTRUCTURE
     1 S1N         1 TEMP              0 ****  ****    0 ROOT
