@<TRIPOS>MOLECULE
S1O
   39    42     1     0     0
SMALL
abcg2


@<TRIPOS>ATOM
      1 C02        -46.8650   -24.9110     1.0670 c3         1 S1O       0.148300
      2 C03        -46.7540   -26.3540     0.7280 cc         1 S1O       0.191300
      3 C04        -45.6820   -27.2050     0.8690 cd         1 S1O      -0.165000
      4 C06        -45.4560   -29.7020     0.4330 c6         1 S1O       0.072300
      5 C07        -44.0120   -29.6080    -0.1120 c6         1 S1O      -0.086400
      6 C08        -43.0390   -30.3870     0.7730 c6         1 S1O      -0.095400
      7 C09        -43.0550   -29.8590     2.2080 c6         1 S1O       0.232800
      8 C11        -44.6880   -28.8940     3.7630 ca         1 S1O       0.431900
      9 C12        -45.9730   -28.4570     4.1950 ca         1 S1O      -0.236800
     10 C13        -47.3480   -28.5150     3.7700 cc         1 S1O      -0.206200
     11 C14        -48.0830   -27.8140     4.6850 cd         1 S1O      -0.158100
     12 C16        -45.9640   -27.6830     5.3800 ca         1 S1O       0.142500
     13 C18        -43.7590   -27.7900     5.5820 ca         1 S1O       0.169900
     14 C20        -45.4550   -30.2840     1.8520 c6         1 S1O       0.214800
     15 N05        -46.1270   -28.3990     0.4260 na         1 S1O       0.112800
     16 N10        -44.4390   -29.6440     2.6610 nh         1 S1O      -0.797300
     17 N15        -47.2450   -27.3150     5.6580 na         1 S1O      -0.320400
     18 N17        -44.8880   -27.3340     6.1040 nb         1 S1O      -0.226000
     19 N19        -43.6050   -28.5300     4.4820 nb         1 S1O      -0.307000
     20 N21        -47.4100   -28.3070     0.0360 nd         1 S1O      -0.220800
     21 N22        -47.7890   -27.0710     0.2130 nc         1 S1O      -0.342000
     22 O01        -47.3450   -24.7810     2.4160 oh         1 S1O      -0.657000
     23 H022       -45.8860   -24.4340     0.9670 h1         1 S1O       0.034700
     24 H021       -47.5590   -24.4300     0.3710 h1         1 S1O       0.034700
     25 H041       -44.6850   -27.0450     1.2360 h4         1 S1O       0.172000
     26 H061       -46.0720   -30.3370    -0.2000 h1         1 S1O       0.094700
     27 H072       -43.9840   -29.9760    -1.1370 hc         1 S1O       0.059700
     28 H071       -43.6970   -28.5640    -0.1430 hc         1 S1O       0.059700
     29 H081       -43.2800   -31.4520     0.7510 hc         1 S1O       0.054700
     30 H082       -42.0240   -30.2900     0.3870 hc         1 S1O       0.054700
     31 H092       -42.5350   -30.5470     2.8820 h1         1 S1O       0.061200
     32 H091       -42.5330   -28.9030     2.2560 h1         1 S1O       0.061200
     33 H131       -47.7700   -28.9790     2.8980 ha         1 S1O       0.207000
     34 H141       -49.1420   -27.6200     4.7180 h4         1 S1O       0.221000
     35 H181       -42.8440   -27.5360     6.1110 h5         1 S1O       0.043100
     36 H201       -46.4280   -30.1950     2.3120 h1         1 S1O       0.073200
     37 H202       -45.2400   -31.3520     1.7810 h1         1 S1O       0.073200
     38 H151       -47.5240   -26.7520     6.4460 hn         1 S1O       0.362000
     39 H011       -47.4250   -23.8390     2.6110 ho         1 S1O       0.438000
@<TRIPOS>BOND
     1     1     2 1   
     2     1    22 1   
     3     1    23 1   
     4     1    24 1   
     5     2     3 2   
     6     2    21 1   
     7     3    15 1   
     8     3    25 1   
     9     4     5 1   
    10     4    14 1   
    11     4    15 1   
    12     4    26 1   
    13     5     6 1   
    14     5    27 1   
    15     5    28 1   
    16     6     7 1   
    17     6    29 1   
    18     6    30 1   
    19     7    16 1   
    20     7    31 1   
    21     7    32 1   
    22     8     9 ar  
    23     8    16 1   
    24     8    19 ar  
    25     9    10 1   
    26     9    12 ar  
    27    10    11 2   
    28    10    33 1   
    29    11    17 1   
    30    11    34 1   
    31    12    17 1   
    32    12    18 ar  
    33    13    18 ar  
    34    13    19 ar  
    35    13    35 1   
    36    14    16 1   
    37    14    36 1   
    38    14    37 1   
    39    15    20 1   
    40    17    38 1   
    41    20    21 2   
    42    22    39 1   
@<TRIPOS>SUBSTRUCTURE
     1 S1O         1 TEMP              0 ****  ****    0 ROOT
