@<TRIPOS>MOLECULE
S1O
   39    42     1     0     0
SMALL
No Charge or Current Charge


@<TRIPOS>ATOM
      1 C02        -47.2300   -24.9550     0.3080 c3         1 S1O       0.148300
      2 C03        -47.0060   -26.4450     0.1600 cc         1 S1O       0.191300
      3 C04        -45.9700   -27.1850     0.6410 cd         1 S1O      -0.165000
      4 C06        -45.4640   -29.6810     0.4600 c6         1 S1O       0.072300
      5 C07        -44.0350   -29.5400    -0.1560 c6         1 S1O      -0.086400
      6 C08        -42.9520   -30.1210     0.7810 c6         1 S1O      -0.095400
      7 C09        -42.9950   -29.4360     2.1740 c6         1 S1O       0.232800
      8 C11        -44.5790   -29.0060     4.1110 ca         1 S1O       0.431900
      9 C12        -45.7370   -28.3810     4.6250 ca         1 S1O      -0.236800
     10 C13        -46.9270   -27.8730     3.9970 cc         1 S1O      -0.206200
     11 C14        -47.7180   -27.3380     4.9990 cd         1 S1O      -0.158100
     12 C16        -45.8370   -28.1230     5.9730 ca         1 S1O       0.142500
     13 C18        -43.7630   -29.0360     6.2690 ca         1 S1O       0.169900
     14 C20        -45.4420   -30.0510     1.9770 c6         1 S1O       0.214800
     15 N05        -46.2690   -28.4610     0.2190 na         1 S1O       0.112800
     16 N10        -44.3830   -29.3170     2.7410 nh         1 S1O      -0.797300
     17 N15        -47.0470   -27.4990     6.2340 na         1 S1O      -0.320400
     18 N17        -44.8480   -28.4500     6.8220 nb         1 S1O      -0.226000
     19 N19        -43.5780   -29.3250     4.9610 nb         1 S1O      -0.307000
     20 N21        -47.4410   -28.4740    -0.4930 nd         1 S1O      -0.220800
     21 N22        -47.8840   -27.2430    -0.5250 nc         1 S1O      -0.342000
     22 O01        -47.7290   -24.6100     1.6130 oh         1 S1O      -0.657000
     23 H022       -46.2770   -24.4420     0.1210 h1         1 S1O       0.034700
     24 H021       -47.9350   -24.6220    -0.4660 h1         1 S1O       0.034700
     25 H041       -45.1000   -26.9200     1.2280 h4         1 S1O       0.172000
     26 H061       -45.9720   -30.5080    -0.0540 h1         1 S1O       0.094700
     27 H072       -44.0010   -30.0430    -1.1330 hc         1 S1O       0.059700
     28 H071       -43.7950   -28.4860    -0.3520 hc         1 S1O       0.059700
     29 H081       -43.0960   -31.2040     0.8940 hc         1 S1O       0.054700
     30 H082       -41.9560   -29.9890     0.3360 hc         1 S1O       0.054700
     31 H092       -42.3380   -30.0080     2.8450 h1         1 S1O       0.061200
     32 H091       -42.5600   -28.4290     2.0800 h1         1 S1O       0.061200
     33 H131       -47.1800   -27.8690     2.9410 ha         1 S1O       0.207000
     34 H141       -48.6910   -26.8540     4.9240 h4         1 S1O       0.221000
     35 H181       -42.9530   -29.3010     6.9460 h5         1 S1O       0.043100
     36 H201       -46.4420   -29.8970     2.4030 h1         1 S1O       0.073200
     37 H202       -45.2520   -31.1320     2.0610 h1         1 S1O       0.073200
     38 H151       -47.3760   -27.2030     7.1480 hn         1 S1O       0.362000
     39 H011       -47.8530   -23.6350     1.6240 ho         1 S1O       0.438000
@<TRIPOS>BOND
     1     1     2 1   
     2     1    22 1   
     3     1    23 1   
     4     1    24 1   
     5     2     3 2   
     6     2    21 1   
     7     3    15 1   
     8     3    25 1   
     9     4     5 1   
    10     4    14 1   
    11     4    15 1   
    12     4    26 1   
    13     5     6 1   
    14     5    27 1   
    15     5    28 1   
    16     6     7 1   
    17     6    29 1   
    18     6    30 1   
    19     7    16 1   
    20     7    31 1   
    21     7    32 1   
    22     8     9 ar  
    23     8    16 1   
    24     8    19 ar  
    25     9    10 1   
    26     9    12 ar  
    27    10    11 2   
    28    10    33 1   
    29    11    17 1   
    30    11    34 1   
    31    12    17 1   
    32    12    18 ar  
    33    13    18 ar  
    34    13    19 ar  
    35    13    35 1   
    36    14    16 1   
    37    14    36 1   
    38    14    37 1   
    39    15    20 1   
    40    17    38 1   
    41    20    21 2   
    42    22    39 1   
@<TRIPOS>SUBSTRUCTURE
     1 S1O         1 TEMP              0 ****  ****    0 ROOT
