@<TRIPOS>MOLECULE
S1Q
   42    44     1     0     0
SMALL
bcc


@<TRIPOS>ATOM
      1 O1         -25.1260    -3.2480     0.4010 oh         1 S1Q      -0.485100
      2 C2         -26.0230    -5.4630     0.4790 ca         1 S1Q      -0.340000
      3 O3         -31.8550    -8.5780     0.2600 o          1 S1Q      -0.595500
      4 C4         -28.4430    -5.7400     0.3220 ca         1 S1Q      -0.160800
      5 C6         -27.4430    -3.5180     0.2520 ca         1 S1Q      -0.219000
      6 C7         -29.5820    -6.6180     0.2970 ce         1 S1Q       0.060800
      7 C8         -30.9010    -6.3200     0.2100 cd         1 S1Q      -0.052600
      8 C10        -32.7820    -5.3010     0.0640 cc         1 S1Q       0.489200
      9 C13        -33.8020    -4.2790    -0.0350 ce         1 S1Q      -0.206600
     10 C14        -33.5020    -2.9730    -0.0760 cf         1 S1Q      -0.060200
     11 C15        -34.4600    -1.8790    -0.1820 ca         1 S1Q      -0.026800
     12 C16        -33.9880    -0.5670    -0.1920 ca         1 S1Q      -0.232300
     13 C17        -34.8900     0.4800    -0.2940 ca         1 S1Q       0.399200
     14 C18        -36.6560    -0.9420    -0.3780 ca         1 S1Q       0.399200
     15 C19        -35.8420    -2.0560    -0.2800 ca         1 S1Q      -0.232300
     16 C1         -26.1710    -4.0820     0.3790 ca         1 S1Q       0.207100
     17 C5         -28.5440    -4.3430     0.2260 ca         1 S1Q      -0.012000
     18 C3         -27.1410    -6.2880     0.4500 ca         1 S1Q       0.218100
     19 O2         -27.0600    -7.6190     0.5430 os         1 S1Q      -0.314900
     20 C11        -25.7960    -8.2390     0.6830 c3         1 S1Q       0.126700
     21 N2         -31.5060    -5.0820     0.1240 nd         1 S1Q      -0.598300
     22 N1         -33.1130    -6.6410     0.1030 n          1 S1Q      -0.424300
     23 C9         -31.9450    -7.3670     0.2000 c          1 S1Q       0.682700
     24 N3         -36.2030     0.3090    -0.3860 nb         1 S1Q      -0.658000
     25 H1         -24.2950    -3.7300     0.4920 ho         1 S1Q       0.430000
     26 H21        -25.0280    -5.8800     0.5780 ha         1 S1Q       0.136000
     27 H22        -27.5530    -2.4450     0.1750 ha         1 S1Q       0.153000
     28 H45        -29.3740    -7.6790     0.3600 ha         1 S1Q       0.155000
     29 H83        -34.3490    -8.2920     0.0830 h1         1 S1Q       0.049033
     30 H81        -35.0360    -6.8890     0.9060 h1         1 S1Q       0.049033
     31 H82        -34.9500    -6.9310    -0.8670 h1         1 S1Q       0.049033
     32 H10        -34.8310    -4.6150    -0.0750 ha         1 S1Q       0.135000
     33 H11        -32.4580    -2.6790    -0.0290 ha         1 S1Q       0.150000
     34 H131       -32.9280    -0.3620    -0.1200 ha         1 S1Q       0.141500
     35 H141       -34.5310     1.5030    -0.3020 h4         1 S1Q       0.020600
     36 H142       -37.7300    -1.0670    -0.4540 h4         1 S1Q       0.020600
     37 H132       -36.2940    -3.0390    -0.2840 ha         1 S1Q       0.141500
     38 H32        -29.5250    -3.9020     0.1280 ha         1 S1Q       0.169000
     39 H332       -25.9860    -9.3070     0.7430 h1         1 S1Q       0.045033
     40 H333       -25.1480    -8.0420    -0.1740 h1         1 S1Q       0.045033
     41 H331       -25.2880    -7.9180     1.5960 h1         1 S1Q       0.045033
     42 C12        -34.4390    -7.2100     0.0530 c3         1 S1Q       0.100300
@<TRIPOS>BOND
     1     1    16 1   
     2     1    25 1   
     3     2    16 ar  
     4     2    18 ar  
     5     2    26 1   
     6     3    23 2   
     7     4     6 1   
     8     4    17 ar  
     9     4    18 ar  
    10     5    16 ar  
    11     5    17 ar  
    12     5    27 1   
    13     6     7 2   
    14     6    28 1   
    15     7    21 1   
    16     7    23 1   
    17     8     9 1   
    18     8    21 2   
    19     8    22 1   
    20     9    10 2   
    21     9    32 1   
    22    10    11 1   
    23    10    33 1   
    24    11    12 ar  
    25    11    15 ar  
    26    12    13 ar  
    27    12    34 1   
    28    13    24 ar  
    29    13    35 1   
    30    14    15 ar  
    31    14    24 ar  
    32    14    36 1   
    33    15    37 1   
    34    17    38 1   
    35    18    19 1   
    36    19    20 1   
    37    20    39 1   
    38    20    40 1   
    39    20    41 1   
    40    22    23 1   
    41    22    42 1   
    42    29    42 1   
    43    30    42 1   
    44    31    42 1   
@<TRIPOS>SUBSTRUCTURE
     1 S1Q         1 TEMP              0 ****  ****    0 ROOT
