@<TRIPOS>MOLECULE
S1Q
   42    44     1     0     0
SMALL
No Charge or Current Charge


@<TRIPOS>ATOM
      1 O1         -25.0370    -3.2650     0.2690 oh         1 S1Q      -0.524100
      2 C2         -26.0370    -5.4010     0.6330 ca         1 S1Q      -0.322000
      3 O3         -31.8640    -8.6160    -0.6010 o          1 S1Q      -0.520000
      4 C4         -28.3590    -5.7760    -0.0440 ca         1 S1Q      -0.160800
      5 C6         -27.2970    -3.6090    -0.4070 ca         1 S1Q      -0.201000
      6 C7         -29.5410    -6.6880    -0.1670 ce         1 S1Q       0.010800
      7 C8         -30.8950    -6.4150    -0.1160 cd         1 S1Q      -0.052600
      8 C10        -32.7160    -5.3630     0.1250 cc         1 S1Q       0.489200
      9 C13        -33.7140    -4.3030     0.2120 ce         1 S1Q      -0.256600
     10 C14        -33.5140    -2.9770    -0.0480 cf         1 S1Q      -0.110200
     11 C15        -34.4770    -1.8600    -0.0040 ca         1 S1Q      -0.026800
     12 C16        -34.0610    -0.5520    -0.3170 ca         1 S1Q      -0.149000
     13 C17        -34.9880     0.5030    -0.2720 ca         1 S1Q       0.333900
     14 C18        -36.6920    -0.9270     0.3640 ca         1 S1Q       0.333900
     15 C19        -35.8310    -2.0380     0.3440 ca         1 S1Q      -0.149000
     16 C1         -26.1160    -4.0850     0.1680 ca         1 S1Q       0.207100
     17 C5         -28.4170    -4.4490    -0.5170 ca         1 S1Q       0.006000
     18 C3         -27.1570    -6.2540     0.5260 ca         1 S1Q       0.218100
     19 O2         -27.1210    -7.5600     0.9760 os         1 S1Q      -0.338100
     20 C11        -25.9490    -8.1400     1.5770 c3         1 S1Q       0.149900
     21 N2         -31.4010    -5.1430     0.1480 nd         1 S1Q      -0.598300
     22 N1         -33.0770    -6.6590    -0.1870 n          1 S1Q      -0.357300
     23 C9         -31.9480    -7.4230    -0.3400 c          1 S1Q       0.540200
     24 N3         -36.2870     0.3280     0.0630 nb         1 S1Q      -0.658000
     25 H1         -24.3130    -3.7720     0.6920 ho         1 S1Q       0.469000
     26 H21        -25.1080    -5.7510     1.0720 ha         1 S1Q       0.118000
     27 H22        -27.3480    -2.5870    -0.7740 ha         1 S1Q       0.135000
     28 H45        -29.2960    -7.7360    -0.3500 ha         1 S1Q       0.205000
     29 H83        -34.4180    -8.2280    -0.7040 h1         1 S1Q       0.049033
     30 H81        -34.9770    -7.1470     0.6030 h1         1 S1Q       0.049033
     31 H82        -34.9860    -6.5830    -1.0960 h1         1 S1Q       0.049033
     32 H10        -34.7110    -4.6450     0.4770 ha         1 S1Q       0.185000
     33 H11        -32.5020    -2.6770    -0.3300 ha         1 S1Q       0.200000
     34 H131       -33.0310    -0.3450    -0.5930 ha         1 S1Q       0.123500
     35 H141       -34.6810     1.5200    -0.5110 h4         1 S1Q       0.020600
     36 H142       -37.7420    -1.0470     0.6310 h4         1 S1Q       0.020600
     37 H132       -36.2280    -3.0140     0.5980 ha         1 S1Q       0.123500
     38 H32        -29.3220    -4.0670    -0.9840 ha         1 S1Q       0.151000
     39 H332       -26.1430    -9.1820     1.8590 h1         1 S1Q       0.045033
     40 H333       -25.1050    -8.1280     0.8770 h1         1 S1Q       0.045033
     41 H331       -25.6640    -7.5910     2.4840 h1         1 S1Q       0.045033
     42 C12        -34.4450    -7.1870    -0.3560 c3         1 S1Q       0.100300
@<TRIPOS>BOND
     1     1    16 1   
     2     1    25 1   
     3     2    16 ar  
     4     2    18 ar  
     5     2    26 1   
     6     3    23 2   
     7     4     6 1   
     8     4    17 ar  
     9     4    18 ar  
    10     5    16 ar  
    11     5    17 ar  
    12     5    27 1   
    13     6     7 2   
    14     6    28 1   
    15     7    21 1   
    16     7    23 1   
    17     8     9 1   
    18     8    21 2   
    19     8    22 1   
    20     9    10 2   
    21     9    32 1   
    22    10    11 1   
    23    10    33 1   
    24    11    12 ar  
    25    11    15 ar  
    26    12    13 ar  
    27    12    34 1   
    28    13    24 ar  
    29    13    35 1   
    30    14    15 ar  
    31    14    24 ar  
    32    14    36 1   
    33    15    37 1   
    34    17    38 1   
    35    18    19 1   
    36    19    20 1   
    37    20    39 1   
    38    20    40 1   
    39    20    41 1   
    40    22    23 1   
    41    22    42 1   
    42    29    42 1   
    43    30    42 1   
    44    31    42 1   
@<TRIPOS>SUBSTRUCTURE
     1 S1Q         1 TEMP              0 ****  ****    0 ROOT
