@<TRIPOS>MOLECULE
S1R
   53    56     1     0     0
SMALL
No Charge or Current Charge


@<TRIPOS>ATOM
      1 C10        -20.1280    22.6920     5.5480 ca         1 S1R      -0.125000
      2 C11        -20.0190    23.7460     4.6280 ca         1 S1R      -0.086000
      3 C12        -19.5220    23.5080     3.3400 ca         1 S1R      -0.130000
      4 C13        -19.1220    22.2150     2.9610 ca         1 S1R      -0.022000
      5 C15        -17.9240    21.0050     1.0290 c          1 S1R       0.583100
      6 C19        -17.0750    22.9370    -2.3590 c6         1 S1R       0.156100
      7 C21        -18.7710    21.2850    -2.8090 c6         1 S1R       0.156100
      8 C22        -18.9320    20.9810    -1.2990 c6         1 S1R      -0.113400
      9 C24        -15.3660    20.1240    -0.4870 ca         1 S1R       0.117100
     10 C25        -15.0600    18.9490     0.2220 ca         1 S1R      -0.155500
     11 C04        -19.6970    18.0380     6.9760 cc         1 S1R      -0.275900
     12 C05        -19.4950    18.9040     5.9260 cd         1 S1R      -0.066000
     13 C06        -19.8740    20.2630     6.1710 cd         1 S1R      -0.064000
     14 C07        -20.3740    20.4140     7.4460 cc         1 S1R      -0.224000
     15 C09        -19.7470    21.3780     5.1950 ca         1 S1R       0.014000
     16 C17        -17.6030    21.2190    -0.5070 c6         1 S1R       0.110000
     17 C18        -17.2010    22.7040    -0.8340 c6         1 S1R      -0.113400
     18 C26        -13.7750    18.7540     0.7560 ca         1 S1R      -0.079000
     19 C27        -12.7810    19.7270     0.5600 ca         1 S1R      -0.135000
     20 C28        -13.0680    20.8840    -0.1830 ca         1 S1R      -0.079000
     21 C29        -14.3550    21.0780    -0.7150 ca         1 S1R      -0.155500
     22 C30        -19.2480    21.1570     3.8890 ca         1 S1R      -0.150000
     23 N01        -19.6630    15.9150     8.1590 nv         1 S1R      -1.084200
     24 N03        -18.9540    15.9860     6.0370 n2         1 S1R      -0.818100
     25 N14        -18.6350    22.0390     1.6360 ns         1 S1R      -0.138000
     26 O16        -17.5070    20.0390     1.6620 o          1 S1R      -0.581100
     27 O20        -18.3400    22.6500    -2.9870 os         1 S1R      -0.455000
     28 O23        -16.6270    20.2600    -1.0330 os         1 S1R      -0.377100
     29 S08        -20.3900    18.9020     8.3410 ss         1 S1R       0.216000
     30 H101       -20.5160    22.9140     6.5370 ha         1 S1R       0.115000
     31 H111       -20.3210    24.7510     4.9170 ha         1 S1R       0.116000
     32 H121       -19.4430    24.3350     2.6370 ha         1 S1R       0.148000
     33 H191       -16.2960    22.2960    -2.7950 h1         1 S1R       0.053950
     34 H192       -16.8070    23.9850    -2.5590 h1         1 S1R       0.053950
     35 H211       -19.7320    21.1440    -3.3260 h1         1 S1R       0.053950
     36 H212       -18.0370    20.6060    -3.2670 h1         1 S1R       0.053950
     37 H221       -19.7430    21.6040    -0.8970 hc         1 S1R       0.073450
     38 H222       -19.2570    19.9390    -1.1720 hc         1 S1R       0.073450
     39 H251       -15.8270    18.1930     0.3660 ha         1 S1R       0.126500
     40 H051       -19.0740    18.5580     4.9880 ha         1 S1R       0.153000
     41 H071       -20.7430    21.2990     7.9440 h4         1 S1R       0.154000
     42 H182       -16.2740    22.9820    -0.3180 hc         1 S1R       0.073450
     43 H181       -17.9570    23.4080    -0.4630 hc         1 S1R       0.073450
     44 H261       -13.5500    17.8490     1.3180 ha         1 S1R       0.116500
     45 H271       -11.7840    19.5760     0.9700 ha         1 S1R       0.117000
     46 H281       -12.2900    21.6260    -0.3550 ha         1 S1R       0.116500
     47 H291       -14.5450    21.9570    -1.3210 ha         1 S1R       0.126500
     48 H301       -18.9720    20.1560     3.5880 ha         1 S1R       0.119000
     49 H012       -19.8250    16.4750     8.9860 hn         1 S1R       0.465500
     50 H031       -19.0790    14.9840     6.2120 hn         1 S1R       0.370400
     51 H141       -18.8660    22.8030     1.0150 hn         1 S1R       0.170000
     52 H011       -19.0980    15.0860     8.3030 hn         1 S1R       0.465500
     53 C02        -19.4210    16.6110     7.0340 ce         1 S1R       0.686800
@<TRIPOS>BOND
     1     1     2 ar  
     2     1    15 ar  
     3     1    30 1   
     4     2     3 ar  
     5     2    31 1   
     6     3     4 ar  
     7     3    32 1   
     8     4    22 ar  
     9     4    25 1   
    10     5    16 1   
    11     5    25 1   
    12     5    26 2   
    13     6    17 1   
    14     6    27 1   
    15     6    33 1   
    16     6    34 1   
    17     7     8 1   
    18     7    27 1   
    19     7    35 1   
    20     7    36 1   
    21     8    16 1   
    22     8    37 1   
    23     8    38 1   
    24     9    10 ar  
    25     9    21 ar  
    26     9    28 1   
    27    10    18 ar  
    28    10    39 1   
    29    11    12 2   
    30    11    29 1   
    31    11    53 1   
    32    12    13 1   
    33    12    40 1   
    34    13    14 2   
    35    13    15 1   
    36    14    29 1   
    37    14    41 1   
    38    15    22 ar  
    39    16    17 1   
    40    16    28 1   
    41    17    42 1   
    42    17    43 1   
    43    18    19 ar  
    44    18    44 1   
    45    19    20 ar  
    46    19    45 1   
    47    20    21 ar  
    48    20    46 1   
    49    21    47 1   
    50    22    48 1   
    51    23    49 1   
    52    23    52 1   
    53    23    53 1   
    54    24    50 1   
    55    24    53 2   
    56    25    51 1   
@<TRIPOS>SUBSTRUCTURE
     1 S1R         1 TEMP              0 ****  ****    0 ROOT
