@<TRIPOS>MOLECULE
S1R
   53    56     1     0     0
SMALL
abcg2


@<TRIPOS>ATOM
      1 C10        -19.4550    22.5800     5.6900 ca         1 S1R      -0.125000
      2 C11        -19.1790    23.6620     4.8660 ca         1 S1R      -0.086000
      3 C12        -18.8290    23.4870     3.5310 ca         1 S1R      -0.130000
      4 C13        -18.7560    22.1910     3.0170 ca         1 S1R      -0.022000
      5 C15        -18.0130    22.7190     0.6920 c          1 S1R       0.583100
      6 C19        -16.7200    22.1070    -2.9280 c6         1 S1R       0.156100
      7 C21        -18.9320    21.3140    -2.7770 c6         1 S1R       0.156100
      8 C22        -19.1040    21.8730    -1.3710 c6         1 S1R      -0.113400
      9 C24        -16.1310    20.2840     0.1100 ca         1 S1R       0.117100
     10 C25        -15.7260    18.9700    -0.1260 ca         1 S1R      -0.155500
     11 C04        -19.5530    17.8750     6.7180 cc         1 S1R      -0.275900
     12 C05        -19.1380    18.8050     5.8060 cd         1 S1R      -0.066000
     13 C06        -19.6800    20.1060     6.0260 cd         1 S1R      -0.064000
     14 C07        -20.5130    20.1220     7.1210 cc         1 S1R      -0.224000
     15 C09        -19.3880    21.2770     5.1810 ca         1 S1R       0.014000
     16 C17        -17.7540    21.9830    -0.6400 c6         1 S1R       0.110000
     17 C18        -16.7650    22.7290    -1.5390 c6         1 S1R      -0.113400
     18 C26        -14.5290    18.5050     0.4000 ca         1 S1R      -0.079000
     19 C27        -13.7200    19.3460     1.1620 ca         1 S1R      -0.135000
     20 C28        -14.1280    20.6540     1.3920 ca         1 S1R      -0.079000
     21 C29        -15.3300    21.1310     0.8750 ca         1 S1R      -0.155500
     22 C30        -19.0370    21.1010     3.8440 ca         1 S1R      -0.150000
     23 N01        -19.3190    15.8430     7.9870 nv         1 S1R      -1.084200
     24 N03        -18.7740    15.8810     5.6840 n2         1 S1R      -0.818100
     25 N14        -18.4200    21.8950     1.6860 ns         1 S1R      -0.138000
     26 O16        -17.9060    23.9350     0.7810 o          1 S1R      -0.581100
     27 O20        -18.0090    22.0870    -3.5400 os         1 S1R      -0.455000
     28 O23        -17.3580    20.6160    -0.4120 os         1 S1R      -0.377100
     29 S08        -20.6380    18.5870     7.8690 ss         1 S1R       0.216000
     30 H101       -19.7040    22.7430     6.7300 ha         1 S1R       0.115000
     31 H111       -19.2300    24.6660     5.2680 ha         1 S1R       0.116000
     32 H121       -18.6130    24.3330     2.9000 ha         1 S1R       0.148000
     33 H191       -16.3230    21.0850    -2.8790 h1         1 S1R       0.053950
     34 H192       -16.0770    22.6940    -3.5820 h1         1 S1R       0.053950
     35 H211       -19.8810    21.3460    -3.3120 h1         1 S1R       0.053950
     36 H212       -18.5920    20.2730    -2.7330 h1         1 S1R       0.053950
     37 H221       -19.5440    22.8710    -1.4240 hc         1 S1R       0.073450
     38 H222       -19.7770    21.2340    -0.7970 hc         1 S1R       0.073450
     39 H251       -16.3620    18.3280    -0.7210 ha         1 S1R       0.126500
     40 H051       -18.4390    18.5640     5.0190 ha         1 S1R       0.153000
     41 H071       -21.0820    20.9510     7.5080 h4         1 S1R       0.154000
     42 H182       -15.7650    22.7340    -1.1090 hc         1 S1R       0.073450
     43 H181       -17.0940    23.7650    -1.6110 hc         1 S1R       0.073450
     44 H261       -14.2260    17.4830     0.2100 ha         1 S1R       0.116500
     45 H271       -12.7850    18.9840     1.5700 ha         1 S1R       0.117000
     46 H281       -13.5120    21.3190     1.9830 ha         1 S1R       0.116500
     47 H291       -15.6190    22.1500     1.0810 ha         1 S1R       0.126500
     48 H301       -18.9910    20.1030     3.4240 ha         1 S1R       0.119000
     49 H012       -19.2460    16.4060     8.8200 hn         1 S1R       0.465500
     50 H031       -18.4880    14.9190     5.8670 hn         1 S1R       0.370400
     51 H141       -18.4330    20.9130     1.4440 hn         1 S1R       0.170000
     52 H011       -18.9580    14.9050     8.0840 hn         1 S1R       0.465500
     53 C02        -19.1670    16.4520     6.7680 ce         1 S1R       0.686800
@<TRIPOS>BOND
     1     1     2 ar  
     2     1    15 ar  
     3     1    30 1   
     4     2     3 ar  
     5     2    31 1   
     6     3     4 ar  
     7     3    32 1   
     8     4    22 ar  
     9     4    25 1   
    10     5    16 1   
    11     5    25 1   
    12     5    26 2   
    13     6    17 1   
    14     6    27 1   
    15     6    33 1   
    16     6    34 1   
    17     7     8 1   
    18     7    27 1   
    19     7    35 1   
    20     7    36 1   
    21     8    16 1   
    22     8    37 1   
    23     8    38 1   
    24     9    10 ar  
    25     9    21 ar  
    26     9    28 1   
    27    10    18 ar  
    28    10    39 1   
    29    11    12 2   
    30    11    29 1   
    31    11    53 1   
    32    12    13 1   
    33    12    40 1   
    34    13    14 2   
    35    13    15 1   
    36    14    29 1   
    37    14    41 1   
    38    15    22 ar  
    39    16    17 1   
    40    16    28 1   
    41    17    42 1   
    42    17    43 1   
    43    18    19 ar  
    44    18    44 1   
    45    19    20 ar  
    46    19    45 1   
    47    20    21 ar  
    48    20    46 1   
    49    21    47 1   
    50    22    48 1   
    51    23    49 1   
    52    23    52 1   
    53    23    53 1   
    54    24    50 1   
    55    24    53 2   
    56    25    51 1   
@<TRIPOS>SUBSTRUCTURE
     1 S1R         1 TEMP              0 ****  ****    0 ROOT
