@<TRIPOS>MOLECULE
S1S
   98   102     1     0     0
SMALL
No Charge or Current Charge


@<TRIPOS>ATOM
      1 O9          42.4570    22.1330     3.0160 o          1 S1S      -0.754000
      2 C40         42.4840    21.9730     4.2260 c          1 S1S       0.727000
      3 O8          42.4480    22.8910     5.0300 o          1 S1S      -0.754000
      4 C39         42.6180    20.5410     4.7660 c3         1 S1S      -0.202400
      5 C38         44.1200    20.1830     5.0260 c3         1 S1S      -0.096700
      6 C15         44.3440    18.8760     5.8500 c3         1 S1S       0.031800
      7 C16         43.8800    19.0270     7.3060 ca         1 S1S      -0.144300
      8 C17         42.6030    18.6040     7.7300 ca         1 S1S      -0.117000
      9 C18         42.2090    18.7550     9.0710 ca         1 S1S      -0.111000
     10 C19         43.0770    19.3300    10.0210 ca         1 S1S       0.074700
     11 C22         42.6120    19.4740    11.4750 c3         1 S1S      -0.298400
     12 C24         43.4320    18.6670    12.4690 c          1 S1S       0.748500
     13 O3          44.6360    18.8520    12.5650 o          1 S1S      -0.761250
     14 O2          42.8510    17.7980    13.1040 o          1 S1S      -0.761250
     15 C23         42.5220    20.9140    11.9570 c          1 S1S       0.748500
     16 O1          43.5100    21.6320    11.9340 o          1 S1S      -0.761250
     17 O           41.4220    21.3240    12.2990 o          1 S1S      -0.761250
     18 C20         44.3530    19.7530     9.5930 ca         1 S1S      -0.111000
     19 C21         44.7480    19.6040     8.2520 ca         1 S1S      -0.117000
     20 C14         43.7770    17.6380     5.1720 c2         1 S1S      -0.135200
     21 C13         44.4560    16.5100     4.9040 c2         1 S1S      -0.289200
     22 C12         43.8830    15.3130     4.1730 c3         1 S1S      -0.026200
     23 C37         44.9430    20.1380     3.7190 c          1 S1S       0.638100
     24 O7          44.7300    19.3430     2.8140 o          1 S1S      -0.651100
     25 N3          45.9860    21.0410     3.6520 ns         1 S1S      -0.517900
     26 C31         46.9350    21.2100     2.5140 c6         1 S1S       0.069400
     27 C32         48.1030    22.1060     3.0390 c6         1 S1S      -0.075400
     28 C33         47.6580    23.5500     3.4010 c6         1 S1S      -0.078900
     29 C34         46.9430    24.2310     2.2120 c6         1 S1S      -0.070400
     30 C35         45.7500    23.3800     1.7200 c6         1 S1S      -0.078900
     31 C36         46.2040    21.9450     1.3420 c6         1 S1S      -0.075400
     32 C30         47.5440    19.8250     2.0720 c          1 S1S       0.612100
     33 O6          47.6360    19.4780     0.9010 o          1 S1S      -0.622100
     34 N2          47.8140    18.9400     3.1030 ns         1 S1S      -0.509900
     35 C27         48.4440    17.6000     2.9680 c3         1 S1S       0.050700
     36 C28         49.7860    17.6300     2.1790 c3         1 S1S      -0.164400
     37 C29         50.7310    18.7230     2.6730 c          1 S1S       0.603100
     38 N1          50.8990    19.7840     1.8570 nt         1 S1S      -0.613000
     39 O5          51.3370    18.6540     3.7280 o          1 S1S      -0.612100
     40 C26         47.4590    16.5040     2.4420 c          1 S1S       0.598100
     41 O4          47.8520    15.3920     2.1070 o          1 S1S      -0.664100
     42 N           46.1250    16.8470     2.3420 ns         1 S1S      -0.461900
     43 C25         45.0550    15.9310     1.9360 c3         1 S1S       0.111000
     44 C11         44.7480    14.8160     2.9790 c3         1 S1S      -0.083700
     45 C10         44.0970    13.5890     2.2790 c3         1 S1S      -0.032100
     46 C           43.9460    12.3640     3.1870 ca         1 S1S      -0.047300
     47 C1          42.6690    12.0850     3.7180 ca         1 S1S      -0.110000
     48 C2          42.4630    10.9840     4.5600 ca         1 S1S      -0.097000
     49 C3          43.5340    10.1400     4.8840 ca         1 S1S      -0.114000
     50 C9          44.8150    10.3940     4.3640 ca         1 S1S      -0.034000
     51 C8          45.0350    11.5060     3.5110 ca         1 S1S      -0.028000
     52 C7          46.3400    11.7240     3.0060 ca         1 S1S      -0.083000
     53 C6          47.3940    10.8590     3.3460 ca         1 S1S      -0.122000
     54 C5          47.1640     9.7650     4.1930 ca         1 S1S      -0.114000
     55 C4          45.8770     9.5330     4.7000 ca         1 S1S      -0.108000
     56 H391        42.1220    20.4840     5.7400 hc         1 S1S       0.044700
     57 H392        42.2330    19.8240     4.0320 hc         1 S1S       0.044700
     58 H38         44.5330    20.9960     5.6350 hc         1 S1S       0.078700
     59 H15         45.4330    18.7380     5.8890 hc         1 S1S       0.017700
     60 H17         41.9040    18.1610     7.0260 ha         1 S1S       0.069000
     61 H18         41.2190    18.4200     9.3700 ha         1 S1S       0.115000
     62 H22         41.5910    19.0750    11.5390 hc         1 S1S       0.030700
     63 H20         45.0460    20.2010    10.3000 ha         1 S1S       0.115000
     64 H21         45.7370    19.9410     7.9510 ha         1 S1S       0.069000
     65 H14         42.7340    17.7250     4.8670 ha         1 S1S       0.176000
     66 H13         45.5000    16.4080     5.2010 ha         1 S1S       0.159000
     67 H121        42.8740    15.5420     3.8080 hc         1 S1S       0.039200
     68 H122        43.7670    14.4940     4.8920 hc         1 S1S       0.039200
     69 HN3         46.0770    21.6700     4.4400 hn         1 S1S       0.328500
     70 H321        48.5780    21.6390     3.9140 hc         1 S1S       0.048450
     71 H322        48.8850    22.1620     2.2690 hc         1 S1S       0.048450
     72 H331        48.5360    24.1440     3.6920 hc         1 S1S       0.054950
     73 H332        46.9960    23.5400     4.2780 hc         1 S1S       0.054950
     74 H341        47.6550    24.3820     1.3890 hc         1 S1S       0.020200
     75 H342        46.5920    25.2290     2.5100 hc         1 S1S       0.020200
     76 H351        45.2850    23.8620     0.8490 hc         1 S1S       0.054950
     77 H352        44.9760    23.3400     2.4980 hc         1 S1S       0.054950
     78 H361        45.3370    21.3590     1.0100 hc         1 S1S       0.048450
     79 H362        46.8750    22.0090     0.4750 hc         1 S1S       0.048450
     80 HN2         47.6450    19.2980     4.0370 hn         1 S1S       0.344500
     81 H27         48.6840    17.2800     3.9910 h1         1 S1S       0.087700
     82 H281        50.2830    16.6630     2.3150 hc         1 S1S       0.077700
     83 H282        49.5710    17.7750     1.1150 hc         1 S1S       0.077700
     84 HN11        50.3990    19.8300     0.9800 hn         1 S1S       0.307500
     85 HN12        51.5290    20.5230     2.1300 hn         1 S1S       0.307500
     86 HN          45.8660    17.7980     2.5980 hn         1 S1S       0.365500
     87 H251        44.1450    16.5130     1.7390 h1         1 S1S       0.051200
     88 H252        45.3620    15.4720     0.9870 h1         1 S1S       0.051200
     89 H11         45.7020    14.4760     3.3970 hc         1 S1S       0.060700
     90 H101        43.1170    13.8910     1.8870 hc         1 S1S       0.042200
     91 H102        44.6790    13.3170     1.3900 hc         1 S1S       0.042200
     92 HC1         41.8280    12.7330     3.4800 ha         1 S1S       0.116000
     93 HC2         41.4730    10.7850     4.9630 ha         1 S1S       0.109000
     94 HC3         43.3660     9.2880     5.5380 ha         1 S1S       0.103000
     95 HC7         46.5600    12.5590     2.3470 ha         1 S1S       0.133000
     96 HC6         48.3920    11.0390     2.9520 ha         1 S1S       0.108000
     97 HC5         47.9820     9.0970     4.4550 ha         1 S1S       0.098000
     98 HC4         45.7060     8.6820     5.3550 ha         1 S1S       0.101000
@<TRIPOS>BOND
     1     1     2 1   
     2     2     3 1   
     3     2     4 1   
     4     4     5 1   
     5     4    56 1   
     6     4    57 1   
     7     5     6 1   
     8     5    23 1   
     9     5    58 1   
    10     6     7 1   
    11     6    20 1   
    12     6    59 1   
    13     7     8 ar  
    14     7    19 ar  
    15     8     9 ar  
    16     8    60 1   
    17     9    10 ar  
    18     9    61 1   
    19    10    11 1   
    20    10    18 ar  
    21    11    12 1   
    22    11    15 1   
    23    11    62 1   
    24    12    13 1   
    25    12    14 1   
    26    15    16 1   
    27    15    17 1   
    28    18    19 ar  
    29    18    63 1   
    30    19    64 1   
    31    20    21 2   
    32    20    65 1   
    33    21    22 1   
    34    21    66 1   
    35    22    44 1   
    36    22    67 1   
    37    22    68 1   
    38    23    24 2   
    39    23    25 1   
    40    25    26 1   
    41    25    69 1   
    42    26    27 1   
    43    26    31 1   
    44    26    32 1   
    45    27    28 1   
    46    27    70 1   
    47    27    71 1   
    48    28    29 1   
    49    28    72 1   
    50    28    73 1   
    51    29    30 1   
    52    29    74 1   
    53    29    75 1   
    54    30    31 1   
    55    30    76 1   
    56    30    77 1   
    57    31    78 1   
    58    31    79 1   
    59    32    33 2   
    60    32    34 1   
    61    34    35 1   
    62    34    80 1   
    63    35    36 1   
    64    35    40 1   
    65    35    81 1   
    66    36    37 1   
    67    36    82 1   
    68    36    83 1   
    69    37    38 1   
    70    37    39 2   
    71    38    84 1   
    72    38    85 1   
    73    40    41 2   
    74    40    42 1   
    75    42    43 1   
    76    42    86 1   
    77    43    44 1   
    78    43    87 1   
    79    43    88 1   
    80    44    45 1   
    81    44    89 1   
    82    45    46 1   
    83    45    90 1   
    84    45    91 1   
    85    46    47 ar  
    86    46    51 ar  
    87    47    48 ar  
    88    47    92 1   
    89    48    49 ar  
    90    48    93 1   
    91    49    50 ar  
    92    49    94 1   
    93    50    51 ar  
    94    50    55 ar  
    95    51    52 ar  
    96    52    53 ar  
    97    52    95 1   
    98    53    54 ar  
    99    53    96 1   
   100    54    55 ar  
   101    54    97 1   
   102    55    98 1   
@<TRIPOS>SUBSTRUCTURE
     1 S1S         1 TEMP              0 ****  ****    0 ROOT
