@<TRIPOS>MOLECULE
S1S
   98   102     1     0     0
SMALL
abcg2


@<TRIPOS>ATOM
      1 O9          42.8960    22.5200     3.7270 o          1 S1S      -0.754000
      2 C40         42.0050    21.7380     4.1190 c          1 S1S       0.727000
      3 O8          40.7750    21.9410     4.1030 o          1 S1S      -0.754000
      4 C39         42.4530    20.3670     4.6570 c3         1 S1S      -0.202400
      5 C38         43.9430    20.2410     4.9270 c3         1 S1S      -0.096700
      6 C15         44.3320    18.9220     5.6700 c3         1 S1S       0.031800
      7 C16         43.9110    19.0250     7.1230 ca         1 S1S      -0.144300
      8 C17         42.7190    18.5050     7.6120 ca         1 S1S      -0.117000
      9 C18         42.3630    18.6710     8.9470 ca         1 S1S      -0.111000
     10 C19         43.1830    19.3470     9.8460 ca         1 S1S       0.074700
     11 C22         42.7840    19.4990    11.2860 c3         1 S1S      -0.298400
     12 C24         43.5240    18.5350    12.2420 c          1 S1S       0.748500
     13 O3          44.6450    18.1080    11.9050 o          1 S1S      -0.761250
     14 O2          42.9160    18.2720    13.3020 o          1 S1S      -0.761250
     15 C23         42.9660    20.9800    11.7330 c          1 S1S       0.748500
     16 O1          43.9710    21.2540    12.4190 o          1 S1S      -0.761250
     17 O           42.0950    21.7790    11.3370 o          1 S1S      -0.761250
     18 C20         44.3860    19.8560     9.3520 ca         1 S1S      -0.111000
     19 C21         44.7340    19.7050     8.0210 ca         1 S1S      -0.117000
     20 C14         43.8050    17.6890     4.9950 c2         1 S1S      -0.135200
     21 C13         44.5080    16.5830     4.7730 c2         1 S1S      -0.289200
     22 C12         43.9440    15.3450     4.1500 c3         1 S1S      -0.026200
     23 C37         44.7530    20.3270     3.6500 c          1 S1S       0.638100
     24 O7          44.4530    19.7030     2.6380 o          1 S1S      -0.651100
     25 N3          45.8990    21.0340     3.7360 ns         1 S1S      -0.517900
     26 C31         46.8370    21.1940     2.6360 c6         1 S1S       0.069400
     27 C32         48.1100    21.8660     3.1930 c6         1 S1S      -0.075400
     28 C33         47.8810    23.3140     3.6190 c6         1 S1S      -0.078900
     29 C34         47.2790    24.1410     2.4920 c6         1 S1S      -0.070400
     30 C35         46.0080    23.4940     1.9570 c6         1 S1S      -0.078900
     31 C36         46.2640    22.0610     1.5060 c6         1 S1S      -0.075400
     32 C30         47.2540    19.8110     2.1060 c          1 S1S       0.612100
     33 O6          47.4120    19.5820     0.9200 o          1 S1S      -0.622100
     34 N2          47.5120    18.8950     3.0620 ns         1 S1S      -0.509900
     35 C27         48.1120    17.6070     2.8090 c3         1 S1S       0.050700
     36 C28         49.4840    17.6930     2.1390 c3         1 S1S      -0.164400
     37 C29         50.3870    18.6270     2.9160 c          1 S1S       0.603100
     38 N1          51.0080    19.5640     2.1860 nt         1 S1S      -0.613000
     39 O5          50.5370    18.5150     4.1240 o          1 S1S      -0.612100
     40 C26         47.1970    16.6110     2.0950 c          1 S1S       0.598100
     41 O4          47.6690    15.6100     1.5730 o          1 S1S      -0.664100
     42 N           45.8850    16.8590     2.1690 ns         1 S1S      -0.461900
     43 C25         44.8950    15.8600     1.8390 c3         1 S1S       0.111000
     44 C11         44.7180    14.8070     2.9410 c3         1 S1S      -0.083700
     45 C10         44.0180    13.5700     2.3530 c3         1 S1S      -0.032100
     46 C           43.9420    12.4090     3.3050 ca         1 S1S      -0.047300
     47 C1          42.7620    12.1120     3.9400 ca         1 S1S      -0.110000
     48 C2          42.6640    11.0630     4.8750 ca         1 S1S      -0.097000
     49 C3          43.7600    10.3050     5.1740 ca         1 S1S      -0.114000
     50 C9          44.9980    10.5620     4.5390 ca         1 S1S      -0.034000
     51 C8          45.0950    11.6180     3.5910 ca         1 S1S      -0.028000
     52 C7          46.3470    11.8360     2.9630 ca         1 S1S      -0.083000
     53 C6          47.4360    11.0620     3.2640 ca         1 S1S      -0.122000
     54 C5          47.3350    10.0240     4.2120 ca         1 S1S      -0.114000
     55 C4          46.1410     9.7810     4.8320 ca         1 S1S      -0.108000
     56 H391        41.8960    20.1480     5.5720 hc         1 S1S       0.044700
     57 H392        42.1340    19.6110     3.9330 hc         1 S1S       0.044700
     58 H38         44.2430    21.0620     5.5850 hc         1 S1S       0.078700
     59 H15         45.4270    18.8610     5.6690 hc         1 S1S       0.017700
     60 H17         42.0510    17.9590     6.9560 ha         1 S1S       0.069000
     61 H18         41.4220    18.2600     9.2940 ha         1 S1S       0.115000
     62 H22         41.7140    19.2740    11.3530 hc         1 S1S       0.030700
     63 H20         45.0520    20.3910    10.0160 ha         1 S1S       0.115000
     64 H21         45.6740    20.1190     7.6690 ha         1 S1S       0.069000
     65 H14         42.7600    17.6990     4.6960 ha         1 S1S       0.176000
     66 H13         45.5530    16.5450     5.0780 ha         1 S1S       0.159000
     67 H121        42.9030    15.5260     3.8580 hc         1 S1S       0.039200
     68 H122        43.9150    14.5560     4.9090 hc         1 S1S       0.039200
     69 HN3         46.0620    21.5610     4.5780 hn         1 S1S       0.328500
     70 H321        48.5010    21.2830     4.0310 hc         1 S1S       0.048450
     71 H322        48.8740    21.8410     2.4110 hc         1 S1S       0.048450
     72 H331        48.8350    23.7380     3.9390 hc         1 S1S       0.054950
     73 H332        47.2270    23.3610     4.4970 hc         1 S1S       0.054950
     74 H341        48.0100    24.2290     1.6810 hc         1 S1S       0.020200
     75 H342        47.0750    25.1570     2.8390 hc         1 S1S       0.020200
     76 H351        45.6250    24.0680     1.1100 hc         1 S1S       0.054950
     77 H352        45.2240    23.5150     2.7190 hc         1 S1S       0.054950
     78 H361        45.3510    21.6120     1.1160 hc         1 S1S       0.048450
     79 H362        46.9830    22.0720     0.6830 hc         1 S1S       0.048450
     80 HN2         47.3790    19.1570     4.0260 hn         1 S1S       0.344500
     81 H27         48.2610    17.1680     3.8000 h1         1 S1S       0.087700
     82 H281        49.9420    16.7030     2.1500 hc         1 S1S       0.077700
     83 H282        49.3940    17.9890     1.0950 hc         1 S1S       0.077700
     84 HN11        50.8540    19.6600     1.1980 hn         1 S1S       0.307500
     85 HN12        51.6390    20.2170     2.6230 hn         1 S1S       0.307500
     86 HN          45.5660    17.6970     2.6320 hn         1 S1S       0.365500
     87 H251        43.9500    16.3720     1.6500 h1         1 S1S       0.051200
     88 H252        45.1830    15.3730     0.9050 h1         1 S1S       0.051200
     89 H11         45.7160    14.5110     3.2780 hc         1 S1S       0.060700
     90 H101        43.0050    13.8500     2.0510 hc         1 S1S       0.042200
     91 H102        44.5360    13.2720     1.4380 hc         1 S1S       0.042200
     92 HC1         41.8820    12.7060     3.7220 ha         1 S1S       0.116000
     93 HC2         41.7140    10.8660     5.3560 ha         1 S1S       0.109000
     94 HC3         43.6950     9.5000     5.8950 ha         1 S1S       0.103000
     95 HC7         46.4560    12.6240     2.2300 ha         1 S1S       0.133000
     96 HC6         48.3810    11.2480     2.7710 ha         1 S1S       0.108000
     97 HC5         48.2030     9.4210     4.4450 ha         1 S1S       0.098000
     98 HC4         46.0530     8.9830     5.5590 ha         1 S1S       0.101000
@<TRIPOS>BOND
     1     1     2 1   
     2     2     3 1   
     3     2     4 1   
     4     4     5 1   
     5     4    56 1   
     6     4    57 1   
     7     5     6 1   
     8     5    23 1   
     9     5    58 1   
    10     6     7 1   
    11     6    20 1   
    12     6    59 1   
    13     7     8 ar  
    14     7    19 ar  
    15     8     9 ar  
    16     8    60 1   
    17     9    10 ar  
    18     9    61 1   
    19    10    11 1   
    20    10    18 ar  
    21    11    12 1   
    22    11    15 1   
    23    11    62 1   
    24    12    13 1   
    25    12    14 1   
    26    15    16 1   
    27    15    17 1   
    28    18    19 ar  
    29    18    63 1   
    30    19    64 1   
    31    20    21 2   
    32    20    65 1   
    33    21    22 1   
    34    21    66 1   
    35    22    44 1   
    36    22    67 1   
    37    22    68 1   
    38    23    24 2   
    39    23    25 1   
    40    25    26 1   
    41    25    69 1   
    42    26    27 1   
    43    26    31 1   
    44    26    32 1   
    45    27    28 1   
    46    27    70 1   
    47    27    71 1   
    48    28    29 1   
    49    28    72 1   
    50    28    73 1   
    51    29    30 1   
    52    29    74 1   
    53    29    75 1   
    54    30    31 1   
    55    30    76 1   
    56    30    77 1   
    57    31    78 1   
    58    31    79 1   
    59    32    33 2   
    60    32    34 1   
    61    34    35 1   
    62    34    80 1   
    63    35    36 1   
    64    35    40 1   
    65    35    81 1   
    66    36    37 1   
    67    36    82 1   
    68    36    83 1   
    69    37    38 1   
    70    37    39 2   
    71    38    84 1   
    72    38    85 1   
    73    40    41 2   
    74    40    42 1   
    75    42    43 1   
    76    42    86 1   
    77    43    44 1   
    78    43    87 1   
    79    43    88 1   
    80    44    45 1   
    81    44    89 1   
    82    45    46 1   
    83    45    90 1   
    84    45    91 1   
    85    46    47 ar  
    86    46    51 ar  
    87    47    48 ar  
    88    47    92 1   
    89    48    49 ar  
    90    48    93 1   
    91    49    50 ar  
    92    49    94 1   
    93    50    51 ar  
    94    50    55 ar  
    95    51    52 ar  
    96    52    53 ar  
    97    52    95 1   
    98    53    54 ar  
    99    53    96 1   
   100    54    55 ar  
   101    54    97 1   
   102    55    98 1   
@<TRIPOS>SUBSTRUCTURE
     1 S1S         1 TEMP              0 ****  ****    0 ROOT
