@<TRIPOS>MOLECULE
S1U
   77    82     1     0     0
SMALL
No Charge or Current Charge


@<TRIPOS>ATOM
      1 N1         -15.6210    11.0540    29.5150 nh         1 S1U      -0.800400
      2 N3         -22.7810     6.7230    29.5720 n3         1 S1U      -0.738600
      3 C4         -13.6460    11.9980    28.2110 c6         1 S1U       0.156300
      4 C5         -15.1950    11.9950    28.4300 c6         1 S1U       0.200800
      5 C6         -16.9410    10.5340    29.5710 ca         1 S1U       0.280000
      6 C7         -18.0090    11.1510    28.8870 ca         1 S1U      -0.145500
      7 C8         -19.3110    10.6220    28.9500 ca         1 S1U      -0.106500
      8 C10        -18.5090     8.8410    30.3850 ca         1 S1U      -0.106500
      9 C13        -23.1990     8.1610    29.6570 c3         1 S1U       0.079800
     10 C15        -21.6580     4.9460    28.2800 c6         1 S1U      -0.092400
     11 C17        -18.0990     6.4460    28.0000 ca         1 S1U      -0.077000
     12 C20        -16.3300     7.9540    27.3010 ca         1 S1U      -0.076000
     13 C21        -15.8620     9.0360    26.5320 ca         1 S1U      -0.069000
     14 C22        -16.7400     9.7200    25.6760 ca         1 S1U      -0.117000
     15 C24        -18.5540     8.2390    26.3450 ca         1 S1U      -0.108000
     16 C26        -23.7510     5.7850    30.2020 c6         1 S1U       0.221100
     17 C28        -24.0300     3.3350    30.8440 ca         1 S1U      -0.100000
     18 O1         -22.3440    10.2180    28.6530 o          1 S1U      -0.605100
     19 C12        -22.1080     9.2090    29.3130 c          1 S1U       0.592100
     20 C11        -19.5720     9.4610    29.7060 ca         1 S1U      -0.067000
     21 C9         -17.2100     9.3710    30.3170 ca         1 S1U      -0.145500
     22 C3         -14.8240    11.2420    30.7710 c6         1 S1U       0.200800
     23 C2         -13.2820    11.2610    30.5100 c6         1 S1U       0.156300
     24 N          -12.8750    12.2570    29.4660 n3         1 S1U      -0.717600
     25 C1         -11.4130    12.3060    29.2200 c3         1 S1U       0.165800
     26 C          -10.5740    12.7670    30.4290 c3         1 S1U      -0.089100
     27 C27        -23.3720     4.3020    30.0590 ca         1 S1U      -0.061300
     28 C30        -22.3890     3.8940    29.1280 ca         1 S1U      -0.050300
     29 C31        -22.0740     2.5280    28.9920 ca         1 S1U      -0.087000
     30 C32        -22.7330     1.5720    29.7810 ca         1 S1U       0.127000
     31 Cl         -22.3340    -0.1330    29.6100 cl         1 S1U      -0.207000
     32 C29        -23.7100     1.9730    30.7070 ca         1 S1U      -0.091000
     33 C14        -22.4360     6.2780    28.2010 c6         1 S1U       0.168800
     34 C16        -20.2110     5.1970    28.7650 c          1 S1U       0.608100
     35 O          -19.7800     4.7330    29.8150 o          1 S1U      -0.563100
     36 N4         -19.4490     5.9950    27.9190 ns         1 S1U      -0.156000
     37 C25        -17.6770     7.5420    27.2080 ca         1 S1U      -0.024000
     38 C23        -18.0840     9.3240    25.5860 ca         1 S1U      -0.085000
     39 C19        -15.4630     7.2740    28.1760 ca         1 S1U       0.358900
     40 N5         -15.8520     6.2210    28.9310 nb         1 S1U      -0.654000
     41 C18        -17.1420     5.8240    28.8410 ca         1 S1U       0.319900
     42 H2         -13.3550    11.0250    27.7880 h1         1 S1U       0.037450
     43 H3         -13.4060    12.7580    27.4540 h1         1 S1U       0.037450
     44 H4         -15.6720    11.7250    27.4770 h1         1 S1U       0.045950
     45 H5         -15.5170    13.0170    28.6780 h1         1 S1U       0.045950
     46 H6         -17.8420    12.0510    28.3040 ha         1 S1U       0.115500
     47 H7         -20.1000    11.1290    28.4020 ha         1 S1U       0.133000
     48 H8         -18.6850     7.9360    30.9640 ha         1 S1U       0.133000
     49 H9         -23.5140     8.3890    30.6840 h1         1 S1U       0.067200
     50 H10        -24.0600     8.3500    29.0020 h1         1 S1U       0.067200
     51 H11        -21.5780     4.6330    27.2310 hc         1 S1U       0.069700
     52 H12        -14.8230     9.3500    26.6040 ha         1 S1U       0.118000
     53 H13        -16.3790    10.5600    25.0850 ha         1 S1U       0.115000
     54 H14        -19.5990     7.9600    26.2570 ha         1 S1U       0.106000
     55 H15        -23.8520     6.0180    31.2720 h1         1 S1U       0.049700
     56 H16        -24.7470     5.9210    29.7550 h1         1 S1U       0.049700
     57 H17        -24.7920     3.6390    31.5590 ha         1 S1U       0.119000
     58 H18        -20.8670     7.9880    30.3220 hn         1 S1U       0.182000
     59 H19        -16.4050     8.8580    30.8340 ha         1 S1U       0.115500
     60 H20        -15.1100    12.1920    31.2460 h1         1 S1U       0.045950
     61 H21        -15.0360    10.4460    31.4990 h1         1 S1U       0.045950
     62 H22        -12.7850    11.4760    31.4660 h1         1 S1U       0.037450
     63 H23        -12.9690    10.2510    30.2070 h1         1 S1U       0.037450
     64 H25        -11.0520    11.3190    28.8970 h1         1 S1U       0.028700
     65 H26        -11.2110    13.0050    28.3970 h1         1 S1U       0.028700
     66 H27         -9.5260    12.8930    30.1310 hc         1 S1U       0.038700
     67 H28        -10.9390    13.7270    30.8090 hc         1 S1U       0.038700
     68 H29        -10.6050    12.0310    31.2410 hc         1 S1U       0.038700
     69 H30        -21.3180     2.2070    28.2810 ha         1 S1U       0.130000
     70 H31        -24.2190     1.2290    31.3150 ha         1 S1U       0.133000
     71 H32        -21.8370     7.0340    27.6730 h1         1 S1U       0.048200
     72 H33        -23.3530     6.1320    27.6090 h1         1 S1U       0.048200
     73 H34        -19.9420     6.3200    27.0970 hn         1 S1U       0.150000
     74 H35        -18.7630     9.8590    24.9260 ha         1 S1U       0.115000
     75 H36        -14.4200     7.5740    28.2720 h4         1 S1U       0.022100
     76 H37        -17.3970     4.9610    29.4520 h4         1 S1U       0.039100
     77 N2         -20.8580     8.8620    29.8100 ns         1 S1U      -0.131000
@<TRIPOS>BOND
     1     1     4 1   
     2     1     5 1   
     3     1    22 1   
     4     2     9 1   
     5     2    16 1   
     6     2    33 1   
     7     3     4 1   
     8     3    24 1   
     9     3    42 1   
    10     3    43 1   
    11     4    44 1   
    12     4    45 1   
    13     5     6 ar  
    14     5    21 ar  
    15     6     7 ar  
    16     6    46 1   
    17     7    20 ar  
    18     7    47 1   
    19     8    20 ar  
    20     8    21 ar  
    21     8    48 1   
    22     9    19 1   
    23     9    49 1   
    24     9    50 1   
    25    10    28 1   
    26    10    33 1   
    27    10    34 1   
    28    10    51 1   
    29    11    36 1   
    30    11    37 ar  
    31    11    41 ar  
    32    12    13 ar  
    33    12    37 ar  
    34    12    39 ar  
    35    13    14 ar  
    36    13    52 1   
    37    14    38 ar  
    38    14    53 1   
    39    15    37 ar  
    40    15    38 ar  
    41    15    54 1   
    42    16    27 1   
    43    16    55 1   
    44    16    56 1   
    45    17    27 ar  
    46    17    32 ar  
    47    17    57 1   
    48    18    19 2   
    49    19    77 1   
    50    20    77 1   
    51    21    59 1   
    52    22    23 1   
    53    22    60 1   
    54    22    61 1   
    55    23    24 1   
    56    23    62 1   
    57    23    63 1   
    58    24    25 1   
    59    25    26 1   
    60    25    64 1   
    61    25    65 1   
    62    26    66 1   
    63    26    67 1   
    64    26    68 1   
    65    27    28 ar  
    66    28    29 ar  
    67    29    30 ar  
    68    29    69 1   
    69    30    31 1   
    70    30    32 ar  
    71    32    70 1   
    72    33    71 1   
    73    33    72 1   
    74    34    35 2   
    75    34    36 1   
    76    36    73 1   
    77    38    74 1   
    78    39    40 ar  
    79    39    75 1   
    80    40    41 ar  
    81    41    76 1   
    82    58    77 1   
@<TRIPOS>SUBSTRUCTURE
     1 S1U         1 TEMP              0 ****  ****    0 ROOT
