@<TRIPOS>MOLECULE
S1U
   77    82     1     0     0
SMALL
abcg2


@<TRIPOS>ATOM
      1 N1         -15.6230    10.8300    29.5350 nh         1 S1U      -0.800400
      2 N3         -22.7310     6.8220    29.4130 n3         1 S1U      -0.738600
      3 C4         -13.8260    12.0440    28.4020 c6         1 S1U       0.156300
      4 C5         -15.3140    11.9820    28.7030 c6         1 S1U       0.200800
      5 C6         -16.9500    10.3980    29.6190 ca         1 S1U       0.280000
      6 C7         -17.9840    11.0080    28.8940 ca         1 S1U      -0.145500
      7 C8         -19.2770    10.4970    28.8890 ca         1 S1U      -0.106500
      8 C10        -18.5780     8.7680    30.3890 ca         1 S1U      -0.106500
      9 C13        -23.1830     8.1980    29.3420 c3         1 S1U       0.079800
     10 C15        -21.5390     5.0180    28.2820 c6         1 S1U      -0.092400
     11 C17        -18.0700     6.4760    27.8690 ca         1 S1U      -0.077000
     12 C20        -16.4190     8.1180    27.1920 ca         1 S1U      -0.076000
     13 C21        -16.0230     9.2290    26.4150 ca         1 S1U      -0.069000
     14 C22        -16.9120     9.8280    25.5610 ca         1 S1U      -0.117000
     15 C24        -18.6450     8.2620    26.2030 ca         1 S1U      -0.108000
     16 C26        -23.6570     5.9450    30.1170 c6         1 S1U       0.221100
     17 C28        -23.7540     3.6090    31.0250 ca         1 S1U      -0.100000
     18 O1         -22.2330    10.2980    28.6600 o          1 S1U      -0.605100
     19 C12        -22.0360     9.1920    29.1610 c          1 S1U       0.592100
     20 C11        -19.5900     9.3630    29.6310 ca         1 S1U      -0.067000
     21 C9         -17.2920     9.2690    30.3850 ca         1 S1U      -0.145500
     22 C3         -14.8020    10.7960    30.7440 c6         1 S1U       0.200800
     23 C2         -13.3250    10.8730    30.4060 c6         1 S1U       0.156300
     24 N          -13.0280    12.0680    29.6230 n3         1 S1U      -0.717600
     25 C1         -11.6040    12.2000    29.3170 c3         1 S1U       0.165800
     26 C          -10.7430    12.4930    30.5380 c3         1 S1U      -0.089100
     27 C27        -23.1770     4.5150    30.1340 ca         1 S1U      -0.061300
     28 C30        -22.1920     4.0670    29.2530 ca         1 S1U      -0.050300
     29 C31        -21.7990     2.7290    29.2720 ca         1 S1U      -0.087000
     30 C32        -22.3870     1.8520    30.1650 ca         1 S1U       0.127000
     31 CL         -21.8860     0.1710    30.1790 cl         1 S1U      -0.207000
     32 C29        -23.3680     2.2780    31.0530 ca         1 S1U      -0.091000
     33 C14        -22.3960     6.2770    28.1030 c6         1 S1U       0.168800
     34 C16        -20.1330     5.4180    28.7490 c          1 S1U       0.608100
     35 O          -19.7710     5.3530    29.9140 o          1 S1U      -0.563100
     36 N4         -19.3490     5.9010    27.7430 ns         1 S1U      -0.156000
     37 C25        -17.7420     7.6110    27.0750 ca         1 S1U      -0.024000
     38 C23        -18.2340     9.3430    25.4640 ca         1 S1U      -0.085000
     39 C19        -15.5420     7.4990    28.1120 ca         1 S1U       0.358900
     40 N5         -15.8730     6.4640    28.8490 nb         1 S1U      -0.654000
     41 C18        -17.1220     5.9530    28.7170 ca         1 S1U       0.319900
     42 H2         -13.5540    11.1800    27.7710 h1         1 S1U       0.037450
     43 H3         -13.6200    12.9500    27.8280 h1         1 S1U       0.037450
     44 H4         -15.8450    11.8950    27.7570 h1         1 S1U       0.045950
     45 H5         -15.6330    12.9190    29.1860 h1         1 S1U       0.045950
     46 H6         -17.7900    11.8890    28.3020 ha         1 S1U       0.115500
     47 H7         -20.0380    10.9810    28.2990 ha         1 S1U       0.133000
     48 H8         -18.8000     7.8770    30.9630 ha         1 S1U       0.133000
     49 H9         -23.6820     8.4560    30.2800 h1         1 S1U       0.067200
     50 H10        -23.9030     8.3770    28.5320 h1         1 S1U       0.067200
     51 H11        -21.4420     4.5300    27.3090 hc         1 S1U       0.069700
     52 H12        -15.0120     9.6020    26.5170 ha         1 S1U       0.118000
     53 H13        -16.6110    10.6840    24.9720 ha         1 S1U       0.115000
     54 H14        -19.6700     7.9260    26.1290 ha         1 S1U       0.106000
     55 H15        -23.7730     6.3080    31.1400 h1         1 S1U       0.049700
     56 H16        -24.6580     5.9730    29.6510 h1         1 S1U       0.049700
     57 H17        -24.5170     3.9520    31.7130 ha         1 S1U       0.119000
     58 H18        -20.9040     7.8090    30.0230 hn         1 S1U       0.182000
     59 H19        -16.5380     8.7440    30.9510 ha         1 S1U       0.115500
     60 H20        -15.0690    11.6360    31.4050 h1         1 S1U       0.045950
     61 H21        -14.9800     9.8760    31.2910 h1         1 S1U       0.045950
     62 H22        -12.7590    10.8950    31.3370 h1         1 S1U       0.037450
     63 H23        -13.0300     9.9620    29.8550 h1         1 S1U       0.037450
     64 H25        -11.2320    11.2930    28.8080 h1         1 S1U       0.028700
     65 H26        -11.5050    13.0220    28.6040 h1         1 S1U       0.028700
     66 H27         -9.7140    12.6810    30.2260 hc         1 S1U       0.038700
     67 H28        -11.1110    13.3770    31.0630 hc         1 S1U       0.038700
     68 H29        -10.7260    11.6590    31.2410 hc         1 S1U       0.038700
     69 H30        -21.0350     2.3800    28.5880 ha         1 S1U       0.130000
     70 H31        -23.8180     1.5840    31.7490 ha         1 S1U       0.133000
     71 H32        -21.8510     7.0260    27.5300 h1         1 S1U       0.048200
     72 H33        -23.3020     6.0210    27.5330 h1         1 S1U       0.048200
     73 H34        -19.7650     5.9320    26.8250 hn         1 S1U       0.150000
     74 H35        -18.9360     9.8410    24.8060 ha         1 S1U       0.115000
     75 H36        -14.5370     7.8940    28.2270 h4         1 S1U       0.022100
     76 H37        -17.3570     5.0910    29.3240 h4         1 S1U       0.039100
     77 N2         -20.8550     8.7440    29.6320 ns         1 S1U      -0.131000
@<TRIPOS>BOND
     1     1     4 1   
     2     1     5 1   
     3     1    22 1   
     4     2     9 1   
     5     2    16 1   
     6     2    33 1   
     7     3     4 1   
     8     3    24 1   
     9     3    42 1   
    10     3    43 1   
    11     4    44 1   
    12     4    45 1   
    13     5     6 ar  
    14     5    21 ar  
    15     6     7 ar  
    16     6    46 1   
    17     7    20 ar  
    18     7    47 1   
    19     8    20 ar  
    20     8    21 ar  
    21     8    48 1   
    22     9    19 1   
    23     9    49 1   
    24     9    50 1   
    25    10    28 1   
    26    10    33 1   
    27    10    34 1   
    28    10    51 1   
    29    11    36 1   
    30    11    37 ar  
    31    11    41 ar  
    32    12    13 ar  
    33    12    37 ar  
    34    12    39 ar  
    35    13    14 ar  
    36    13    52 1   
    37    14    38 ar  
    38    14    53 1   
    39    15    37 ar  
    40    15    38 ar  
    41    15    54 1   
    42    16    27 1   
    43    16    55 1   
    44    16    56 1   
    45    17    27 ar  
    46    17    32 ar  
    47    17    57 1   
    48    18    19 2   
    49    19    77 1   
    50    20    77 1   
    51    21    59 1   
    52    22    23 1   
    53    22    60 1   
    54    22    61 1   
    55    23    24 1   
    56    23    62 1   
    57    23    63 1   
    58    24    25 1   
    59    25    26 1   
    60    25    64 1   
    61    25    65 1   
    62    26    66 1   
    63    26    67 1   
    64    26    68 1   
    65    27    28 ar  
    66    28    29 ar  
    67    29    30 ar  
    68    29    69 1   
    69    30    31 1   
    70    30    32 ar  
    71    32    70 1   
    72    33    71 1   
    73    33    72 1   
    74    34    35 2   
    75    34    36 1   
    76    36    73 1   
    77    38    74 1   
    78    39    40 ar  
    79    39    75 1   
    80    40    41 ar  
    81    41    76 1   
    82    58    77 1   
@<TRIPOS>SUBSTRUCTURE
     1 S1U         1 TEMP              0 ****  ****    0 ROOT
