@<TRIPOS>MOLECULE
S1V
   23    23     1     0     0
SMALL
No Charge or Current Charge


@<TRIPOS>ATOM
      1 N1          12.7830    24.0250     1.1880 n          1 S1V      -0.420800
      2 C4          10.2530    23.8020     1.5480 c6         1 S1V      -0.087400
      3 C5          10.5100    24.5420     2.8920 c6         1 S1V      -0.000600
      4 C6          11.5350    25.6790     2.6910 c6         1 S1V      -0.087400
      5 C7          12.8900    25.0860     2.2370 c6         1 S1V       0.105500
      6 C8           9.2530    25.0270     3.5070 c1         1 S1V       0.297900
      7 C1          15.2820    23.6200     1.3200 c3         1 S1V      -0.176100
      8 C2          13.9350    23.4410     0.6130 c          1 S1V       0.603100
      9 C3          11.4430    23.8700     0.5490 c6         1 S1V       0.105500
     10 N2           8.2650    25.4330     3.9700 n1         1 S1V      -0.455000
     11 O1          13.8630    22.7700    -0.4090 o          1 S1V      -0.603100
     12 H1           9.3630    24.2020     1.0420 hc         1 S1V       0.061700
     13 H2          10.0240    22.7490     1.7640 hc         1 S1V       0.061700
     14 H3          10.9300    23.8250     3.6120 hc         1 S1V       0.075700
     15 H4          11.6800    26.2480     3.6200 hc         1 S1V       0.061700
     16 H5          11.1680    26.3930     1.9400 hc         1 S1V       0.061700
     17 H6          13.3830    24.6500     3.1190 h1         1 S1V       0.053700
     18 H7          13.5330    25.9000     1.8730 h1         1 S1V       0.053700
     19 H8          16.0880    23.0620     0.8310 hc         1 S1V       0.060033
     20 H9          15.5210    24.6870     1.3780 hc         1 S1V       0.060033
     21 H10         15.1780    23.3370     2.3730 hc         1 S1V       0.060033
     22 H11         11.2920    24.7330    -0.1150 h1         1 S1V       0.053700
     23 H12         11.4170    22.9750    -0.0880 h1         1 S1V       0.053700
@<TRIPOS>BOND
     1     1     5 1   
     2     1     8 1   
     3     1     9 1   
     4     2     3 1   
     5     2     9 1   
     6     2    12 1   
     7     2    13 1   
     8     3     4 1   
     9     3     6 1   
    10     3    14 1   
    11     4     5 1   
    12     4    15 1   
    13     4    16 1   
    14     5    17 1   
    15     5    18 1   
    16     6    10 3   
    17     7     8 1   
    18     7    19 1   
    19     7    20 1   
    20     7    21 1   
    21     8    11 2   
    22     9    22 1   
    23     9    23 1   
@<TRIPOS>SUBSTRUCTURE
     1 S1V         1 TEMP              0 ****  ****    0 ROOT
