@<TRIPOS>MOLECULE
S1V
   23    23     1     0     0
SMALL
bcc


@<TRIPOS>ATOM
      1 N1          12.7320    24.0050     1.2520 n          1 S1V      -0.487800
      2 C4          10.4530    23.4950     1.9640 c6         1 S1V      -0.087400
      3 C5          10.3810    24.7180     2.8980 c6         1 S1V      -0.000600
      4 C6          11.7310    25.4670     2.9290 c6         1 S1V      -0.087400
      5 C7          12.8790    24.5260     2.6040 c6         1 S1V       0.105500
      6 C8           9.3160    25.6240     2.4870 c1         1 S1V       0.208700
      7 C1          15.1600    24.0200     0.9540 c3         1 S1V      -0.176100
      8 C2          13.7700    23.7810     0.4180 c          1 S1V       0.670100
      9 C3          11.3760    23.7420     0.7850 c6         1 S1V       0.105500
     10 N2           8.4800    26.3410     2.1510 n1         1 S1V      -0.365800
     11 O1          13.5940    23.4010    -0.7340 o          1 S1V      -0.603100
     12 H1           9.4630    23.2230     1.6000 hc         1 S1V       0.061700
     13 H2          10.8150    22.6410     2.5380 hc         1 S1V       0.061700
     14 H3          10.1270    24.3770     3.9040 hc         1 S1V       0.075700
     15 H4          11.8880    25.9110     3.9110 hc         1 S1V       0.061700
     16 H5          11.7360    26.2840     2.2040 hc         1 S1V       0.061700
     17 H6          12.9290    23.7150     3.3380 h1         1 S1V       0.053700
     18 H7          13.8090    25.0830     2.6860 h1         1 S1V       0.053700
     19 H8          15.8870    23.6520     0.2330 hc         1 S1V       0.060033
     20 H9          15.3440    25.0850     1.1040 hc         1 S1V       0.060033
     21 H10         15.3340    23.5240     1.9090 hc         1 S1V       0.060033
     22 H11         11.0050    24.5770     0.1800 h1         1 S1V       0.053700
     23 H12         11.3790    22.8630     0.1410 h1         1 S1V       0.053700
@<TRIPOS>BOND
     1     1     5 1   
     2     1     8 1   
     3     1     9 1   
     4     2     3 1   
     5     2     9 1   
     6     2    12 1   
     7     2    13 1   
     8     3     4 1   
     9     3     6 1   
    10     3    14 1   
    11     4     5 1   
    12     4    15 1   
    13     4    16 1   
    14     5    17 1   
    15     5    18 1   
    16     6    10 3   
    17     7     8 1   
    18     7    19 1   
    19     7    20 1   
    20     7    21 1   
    21     8    11 2   
    22     9    22 1   
    23     9    23 1   
@<TRIPOS>SUBSTRUCTURE
     1 S1V         1 TEMP              0 ****  ****    0 ROOT
