@<TRIPOS>MOLECULE
S1W
   42    44     1     0     0
SMALL
bcc


@<TRIPOS>ATOM
      1 N1          37.2220     0.7750    45.1300 nh         1 S1W      -0.688000
      2 N3          42.3560     1.4120    41.7050 nb         1 S1W      -0.758000
      3 C4          38.0090     2.2740    46.8760 ca         1 S1W      -0.232000
      4 C5          40.2890     3.0990    46.8230 ca         1 S1W      -0.205000
      5 C6          39.0350     3.0300    47.4130 ca         1 S1W      -0.057000
      6 C7          35.8170     0.9850    45.3970 c3         1 S1W       0.211100
      7 C8          37.5000    -0.0220    43.9600 c3         1 S1W       0.211100
      8 C10         42.0640     1.6900    44.0360 ca         1 S1W      -0.191500
      9 C13         43.8900    -2.2580    39.4160 ca         1 S1W      -0.227000
     10 C15         42.5480     0.4080    44.2100 ca         1 S1W       0.474700
     11 C17         44.3910    -3.5260    39.1840 ca         1 S1W      -0.063000
     12 C1          38.2060     1.5480    45.6860 ca         1 S1W       0.235600
     13 C11         42.8070     0.1810    41.9740 ca         1 S1W       0.907900
     14 C12         43.9560    -2.6850    41.7900 ca         1 S1W      -0.256000
     15 C14         41.9870     2.1530    42.7300 ca         1 S1W       0.474700
     16 C16         44.4610    -3.9580    41.5310 ca         1 S1W       0.167100
     17 C18         44.6820    -4.3910    40.2280 ca         1 S1W      -0.193000
     18 C2          39.4770     1.6190    45.0830 ca         1 S1W      -0.285000
     19 C3          40.4870     2.3790    45.6540 ca         1 S1W       0.165100
     20 C9          43.6670    -1.8250    40.7300 ca         1 S1W       0.216600
     21 N2          43.1650    -0.5370    40.8750 nu         1 S1W      -0.730300
     22 N4          42.9200    -0.3470    43.1880 nb         1 S1W      -0.758000
     23 O1          41.7330     2.4850    45.0930 os         1 S1W      -0.236200
     24 H4          37.0660     2.2410    47.4020 ha         1 S1W       0.133000
     25 H5          41.0860     3.6890    47.2540 ha         1 S1W       0.148000
     26 H6          38.8550     3.5720    48.3320 ha         1 S1W       0.130000
     27 H8          35.6560     1.7590    46.1390 h1         1 S1W       0.036533
     28 H9          35.2930     1.2980    44.4890 h1         1 S1W       0.036533
     29 H7          35.3420     0.0710    45.7590 h1         1 S1W       0.036533
     30 H10         36.6630    -0.6970    43.7880 h1         1 S1W       0.036533
     31 H11         37.6370     0.5780    43.0530 h1         1 S1W       0.036533
     32 H12         38.3880    -0.6410    44.0970 h1         1 S1W       0.036533
     33 H14         43.6710    -1.6000    38.5840 ha         1 S1W       0.132000
     34 H16         42.6460    -0.0220    45.2020 h4         1 S1W       0.038600
     35 H17         44.5580    -3.8480    38.1650 ha         1 S1W       0.133000
     36 H13         43.7910    -2.3670    42.8080 ha         1 S1W       0.168000
     37 H15         41.6240     3.1530    42.5160 h4         1 S1W       0.038600
     38 H18         45.0750    -5.3820    40.0380 ha         1 S1W       0.149000
     39 H3          39.6640     1.0990    44.1550 ha         1 S1W       0.138000
     40 H2          43.0250    -0.0330    40.0120 hn         1 S1W       0.457800
     41 H1          44.5600    -4.4060    43.3860 ho         1 S1W       0.429000
     42 O2          44.7510    -4.8110    42.5330 oh         1 S1W      -0.496100
@<TRIPOS>BOND
     1     1     6 1   
     2     1     7 1   
     3     1    12 1   
     4     2    13 ar  
     5     2    15 ar  
     6     3     5 ar  
     7     3    12 ar  
     8     3    24 1   
     9     4     5 ar  
    10     4    19 ar  
    11     4    25 1   
    12     5    26 1   
    13     6    27 1   
    14     6    28 1   
    15     6    29 1   
    16     7    30 1   
    17     7    31 1   
    18     7    32 1   
    19     8    10 ar  
    20     8    15 ar  
    21     8    23 1   
    22     9    11 ar  
    23     9    20 ar  
    24     9    33 1   
    25    10    22 ar  
    26    10    34 1   
    27    11    17 ar  
    28    11    35 1   
    29    12    18 ar  
    30    13    21 1   
    31    13    22 ar  
    32    14    16 ar  
    33    14    20 ar  
    34    14    36 1   
    35    15    37 1   
    36    16    17 ar  
    37    16    42 1   
    38    17    38 1   
    39    18    19 ar  
    40    18    39 1   
    41    19    23 1   
    42    20    21 1   
    43    21    40 1   
    44    41    42 1   
@<TRIPOS>SUBSTRUCTURE
     1 S1W         1 TEMP              0 ****  ****    0 ROOT
