@<TRIPOS>MOLECULE
S1W
   42    44     1     0     0
SMALL
No Charge or Current Charge


@<TRIPOS>ATOM
      1 N1          37.0320     0.8220    45.0970 nh         1 S1W      -0.826400
      2 N3          43.1790     1.7070    41.6390 nb         1 S1W      -0.232000
      3 C4          38.1540     1.8540    47.0230 ca         1 S1W      -0.214000
      4 C5          40.3470     2.8650    46.7710 ca         1 S1W      -0.187000
      5 C6          39.2500     2.5340    47.5800 ca         1 S1W      -0.039000
      6 C7          35.6650     0.9820    45.6460 c3         1 S1W       0.211100
      7 C8          37.1920    -0.0930    43.9420 c3         1 S1W       0.211100
      8 C10         41.9840     2.0030    43.7040 ca         1 S1W      -0.060900
      9 C13         43.9840    -2.3160    39.4580 ca         1 S1W      -0.209000
     10 C15         41.9690     0.6000    43.8570 ca         1 S1W       0.146400
     11 C17         44.2530    -3.6820    39.2650 ca         1 S1W      -0.045000
     12 C1          38.1390     1.5040    45.6580 ca         1 S1W       0.374000
     13 C11         43.1120     0.3850    41.8780 ca         1 S1W       0.381900
     14 C12         44.1690    -2.6070    41.8590 ca         1 S1W      -0.238000
     15 C14         42.6190     2.5190    42.5600 ca         1 S1W       0.146400
     16 C16         44.4370    -3.9700    41.6700 ca         1 S1W       0.167100
     17 C18         44.4760    -4.5090    40.3770 ca         1 S1W      -0.175000
     18 C2          39.2450     1.8440    44.8580 ca         1 S1W      -0.267000
     19 C3          40.3490     2.5100    45.4150 ca         1 S1W       0.165100
     20 C9          43.9270    -1.7760    40.7520 ca         1 S1W       0.355000
     21 N2          43.6710    -0.4120    40.8870 nu         1 S1W      -0.923900
     22 N4          42.5280    -0.2110    42.9360 nb         1 S1W      -0.232000
     23 O1          41.4300     2.8550    44.6370 os         1 S1W      -0.236200
     24 H4          37.3180     1.5940    47.6640 ha         1 S1W       0.115000
     25 H5          41.1980     3.3910    47.1950 ha         1 S1W       0.130000
     26 H6          39.2490     2.8010    48.6350 ha         1 S1W       0.112000
     27 H8          35.5080     2.0110    45.9970 h1         1 S1W       0.036533
     28 H9          34.9090     0.7750    44.8770 h1         1 S1W       0.036533
     29 H7          35.5050     0.2930    46.4860 h1         1 S1W       0.036533
     30 H10         36.3970    -0.8520    43.9310 h1         1 S1W       0.036533
     31 H11         37.1510     0.4670    42.9980 h1         1 S1W       0.036533
     32 H12         38.1530    -0.6220    43.9980 h1         1 S1W       0.036533
     33 H14         43.8110    -1.6810    38.5940 ha         1 S1W       0.114000
     34 H16         41.5120     0.1190    44.7190 h4         1 S1W       0.038600
     35 H17         44.2880    -4.0970    38.2590 ha         1 S1W       0.115000
     36 H13         44.1680    -2.1930    42.8600 ha         1 S1W       0.150000
     37 H15         42.6770     3.5900    42.3760 h4         1 S1W       0.038600
     38 H18         44.6850    -5.5660    40.2350 ha         1 S1W       0.131000
     39 H3          39.2450     1.6070    43.8000 ha         1 S1W       0.120000
     40 H2          43.8620     0.1150    40.0350 hn         1 S1W       0.513000
     41 H1          44.6020    -4.2390    43.5570 ho         1 S1W       0.468000
     42 O2          44.6710    -4.7780    42.7410 oh         1 S1W      -0.535100
@<TRIPOS>BOND
     1     1     6 1   
     2     1     7 1   
     3     1    12 1   
     4     2    13 ar  
     5     2    15 ar  
     6     3     5 ar  
     7     3    12 ar  
     8     3    24 1   
     9     4     5 ar  
    10     4    19 ar  
    11     4    25 1   
    12     5    26 1   
    13     6    27 1   
    14     6    28 1   
    15     6    29 1   
    16     7    30 1   
    17     7    31 1   
    18     7    32 1   
    19     8    10 ar  
    20     8    15 ar  
    21     8    23 1   
    22     9    11 ar  
    23     9    20 ar  
    24     9    33 1   
    25    10    22 ar  
    26    10    34 1   
    27    11    17 ar  
    28    11    35 1   
    29    12    18 ar  
    30    13    21 1   
    31    13    22 ar  
    32    14    16 ar  
    33    14    20 ar  
    34    14    36 1   
    35    15    37 1   
    36    16    17 ar  
    37    16    42 1   
    38    17    38 1   
    39    18    19 ar  
    40    18    39 1   
    41    19    23 1   
    42    20    21 1   
    43    21    40 1   
    44    41    42 1   
@<TRIPOS>SUBSTRUCTURE
     1 S1W         1 TEMP              0 ****  ****    0 ROOT
