@<TRIPOS>MOLECULE
S1X
   46    49     1     0     0
SMALL
No Charge or Current Charge


@<TRIPOS>ATOM
      1 C18        -52.0230   -30.4830    10.2110 cx         1 S1X      -0.099400
      2 C16        -52.1770   -29.1020     9.6040 cx         1 S1X      -0.244700
      3 C17        -53.4020   -29.9080     9.9930 cx         1 S1X      -0.099400
      4 C15        -51.8610   -28.9080     8.1370 c          1 S1X       0.635100
      5 C13        -49.8080   -29.1200     6.6010 ca         1 S1X      -0.025000
      6 C12        -50.3890   -28.7970     5.3590 ca         1 S1X      -0.167500
      7 C11        -49.6080   -28.7730     4.1900 ca         1 S1X      -0.045500
      8 C10        -48.2270   -29.0700     4.2300 ca         1 S1X      -0.153600
      9 C20        -48.4360   -29.4210     6.6460 ca         1 S1X      -0.167500
     10 C03        -43.7260   -29.1440     2.4140 c5         1 S1X      -0.205700
     11 C04        -43.2470   -30.6450     2.5520 c5         1 S1X      -0.016100
     12 C05        -44.0710   -31.2820     1.4640 ca         1 S1X      -0.054300
     13 C06        -45.1500   -30.4980     1.0950 ca         1 S1X      -0.083300
     14 C07        -45.2230   -29.2090     1.8790 c5         1 S1X       0.165000
     15 C09        -47.4220   -29.0340     2.9460 c          1 S1X       0.601700
     16 C21        -47.6500   -29.3980     5.4800 ca         1 S1X      -0.045500
     17 C23        -46.0370   -30.9260     0.0930 ca         1 S1X      -0.080000
     18 C24        -45.8160   -32.1690    -0.5320 ca         1 S1X      -0.135000
     19 C25        -44.7180   -32.9680    -0.1500 ca         1 S1X      -0.126000
     20 C26        -43.8370   -32.5250     0.8550 ca         1 S1X      -0.108000
     21 N08        -46.0730   -29.2880     3.0630 ns         1 S1X      -0.479900
     22 N14        -50.5330   -29.1660     7.8230 ns         1 S1X      -0.140000
     23 O19        -52.7170   -28.5460     7.3390 o          1 S1X      -0.595100
     24 O22        -47.9470   -28.7910     1.8650 o          1 S1X      -0.664100
     25 H181       -51.7120   -31.3030     9.5650 hc         1 S1X       0.080450
     26 H182       -51.6590   -30.5520    11.2340 hc         1 S1X       0.080450
     27 H161       -51.9280   -28.2550    10.2380 hc         1 S1X       0.083700
     28 H172       -53.9620   -29.5900    10.8690 hc         1 S1X       0.080450
     29 H171       -54.0090   -30.3390     9.2000 hc         1 S1X       0.080450
     30 H121       -51.4450   -28.5620     5.2720 ha         1 S1X       0.123500
     31 H111       -50.0850   -28.5190     3.2450 ha         1 S1X       0.143000
     32 H201       -47.9680   -29.6760     7.5940 ha         1 S1X       0.123500
     33 H031       -43.1290   -28.6460     1.6410 hc         1 S1X       0.047700
     34 H042       -43.4870   -31.0780     3.5300 hc         1 S1X       0.048200
     35 H041       -42.1670   -30.7520     2.3950 hc         1 S1X       0.048200
     36 H071       -45.4600   -28.3450     1.2420 h1         1 S1X       0.050700
     37 H211       -46.5950   -29.6430     5.5730 ha         1 S1X       0.143000
     38 H231       -46.8830   -30.3070    -0.1970 ha         1 S1X       0.120000
     39 H241       -46.4940   -32.5140    -1.3080 ha         1 S1X       0.093000
     40 H251       -44.5500   -33.9280    -0.6340 ha         1 S1X       0.090000
     41 H261       -42.9880   -33.1350     1.1540 ha         1 S1X       0.101000
     42 H081       -45.6860   -29.3860     3.9960 hn         1 S1X       0.382500
     43 H141       -49.9740   -29.4450     8.6190 hn         1 S1X       0.146000
     44 C02        -43.5280   -28.3570     3.7400 c          1 S1X       0.720000
     45 O01        -42.8420   -27.3460     3.7150 o          1 S1X      -0.725500
     46 O27        -44.0160   -28.7790     4.7800 o          1 S1X      -0.725500
@<TRIPOS>BOND
     1     1     2 1   
     2     1     3 1   
     3     1    25 1   
     4     1    26 1   
     5     2     3 1   
     6     2     4 1   
     7     2    27 1   
     8     3    28 1   
     9     3    29 1   
    10     4    22 1   
    11     4    23 2   
    12     5     6 ar  
    13     5     9 ar  
    14     5    22 1   
    15     6     7 ar  
    16     6    30 1   
    17     7     8 ar  
    18     7    31 1   
    19     8    15 1   
    20     8    16 ar  
    21     9    16 ar  
    22     9    32 1   
    23    10    11 1   
    24    10    14 1   
    25    10    33 1   
    26    10    44 1   
    27    11    12 1   
    28    11    34 1   
    29    11    35 1   
    30    12    13 ar  
    31    12    20 ar  
    32    13    14 1   
    33    13    17 ar  
    34    14    21 1   
    35    14    36 1   
    36    15    21 1   
    37    15    24 2   
    38    16    37 1   
    39    17    18 ar  
    40    17    38 1   
    41    18    19 ar  
    42    18    39 1   
    43    19    20 ar  
    44    19    40 1   
    45    20    41 1   
    46    21    42 1   
    47    22    43 1   
    48    44    45 1   
    49    44    46 1   
@<TRIPOS>SUBSTRUCTURE
     1 S1X         1 TEMP              0 ****  ****    0 ROOT
