@<TRIPOS>MOLECULE
S1X
   46    49     1     0     0
SMALL
abcg2


@<TRIPOS>ATOM
      1 C18        -53.3200   -30.2120    10.0550 cx         1 S1X      -0.099400
      2 C16        -52.1910   -29.3000     9.6160 cx         1 S1X      -0.244700
      3 C17        -53.5470   -28.7420     9.9940 cx         1 S1X      -0.099400
      4 C15        -51.8170   -29.3080     8.1760 c          1 S1X       0.635100
      5 C13        -49.7640   -29.1550     6.7500 ca         1 S1X      -0.025000
      6 C12        -50.3620   -29.2230     5.4870 ca         1 S1X      -0.167500
      7 C11        -49.5670   -29.2080     4.3510 ca         1 S1X      -0.045500
      8 C10        -48.1770   -29.1380     4.4270 ca         1 S1X      -0.153600
      9 C20        -48.3680   -29.0670     6.8350 ca         1 S1X      -0.167500
     10 C03        -43.6750   -29.2060     2.5920 c5         1 S1X      -0.205700
     11 C04        -42.9040   -29.6690     1.3420 c5         1 S1X      -0.016100
     12 C05        -43.7800   -30.7650     0.7880 ca         1 S1X      -0.054300
     13 C06        -45.0800   -30.6300     1.2780 ca         1 S1X      -0.083300
     14 C07        -45.1600   -29.3970     2.1570 c5         1 S1X       0.165000
     15 C09        -47.3880   -29.1380     3.1540 c          1 S1X       0.601700
     16 C21        -47.5890   -29.0620     5.6930 ca         1 S1X      -0.045500
     17 C23        -46.0720   -31.5340     0.9330 ca         1 S1X      -0.080000
     18 C24        -45.7490   -32.5910     0.0810 ca         1 S1X      -0.135000
     19 C25        -44.4540   -32.7260    -0.4160 ca         1 S1X      -0.126000
     20 C26        -43.4610   -31.8110    -0.0650 ca         1 S1X      -0.108000
     21 N08        -46.0890   -29.4570     3.2630 ns         1 S1X      -0.479900
     22 N14        -50.4740   -29.1620     7.9560 ns         1 S1X      -0.140000
     23 O19        -52.6430   -29.4390     7.2780 o          1 S1X      -0.595100
     24 O22        -47.9240   -28.8710     2.0700 o          1 S1X      -0.664100
     25 H181       -53.7680   -30.8230     9.2830 hc         1 S1X       0.080450
     26 H182       -53.2110   -30.6840    11.0210 hc         1 S1X       0.080450
     27 H161       -51.3860   -29.1490    10.3220 hc         1 S1X       0.083700
     28 H172       -53.5980   -28.1840    10.9190 hc         1 S1X       0.080450
     29 H171       -54.1500   -28.3600     9.1810 hc         1 S1X       0.080450
     30 H121       -51.4340   -29.2880     5.4030 ha         1 S1X       0.123500
     31 H111       -50.0320   -29.2590     3.3760 ha         1 S1X       0.143000
     32 H201       -47.8980   -29.0010     7.8090 ha         1 S1X       0.123500
     33 H031       -43.4910   -28.1560     2.8260 hc         1 S1X       0.047700
     34 H042       -41.8990   -30.0080     1.5830 hc         1 S1X       0.048200
     35 H041       -42.8250   -28.8460     0.6230 hc         1 S1X       0.048200
     36 H071       -45.4470   -28.5490     1.5270 h1         1 S1X       0.050700
     37 H211       -46.5160   -28.9790     5.8050 ha         1 S1X       0.143000
     38 H231       -47.0770   -31.4250     1.3200 ha         1 S1X       0.120000
     39 H241       -46.5080   -33.3130    -0.1930 ha         1 S1X       0.093000
     40 H251       -44.2150   -33.5540    -1.0730 ha         1 S1X       0.090000
     41 H261       -42.4510   -31.9300    -0.4410 ha         1 S1X       0.101000
     42 H081       -45.6390   -29.6250     4.1620 hn         1 S1X       0.382500
     43 H141       -49.9040   -29.0770     8.7840 hn         1 S1X       0.146000
     44 C02        -43.3050   -30.0150     3.8700 c          1 S1X       0.720000
     45 O01        -43.9840   -29.7490     4.9080 o          1 S1X      -0.725500
     46 O27        -42.3720   -30.8420     3.8110 o          1 S1X      -0.725500
@<TRIPOS>BOND
     1     1     2 1   
     2     1     3 1   
     3     1    25 1   
     4     1    26 1   
     5     2     3 1   
     6     2     4 1   
     7     2    27 1   
     8     3    28 1   
     9     3    29 1   
    10     4    22 1   
    11     4    23 2   
    12     5     6 ar  
    13     5     9 ar  
    14     5    22 1   
    15     6     7 ar  
    16     6    30 1   
    17     7     8 ar  
    18     7    31 1   
    19     8    15 1   
    20     8    16 ar  
    21     9    16 ar  
    22     9    32 1   
    23    10    11 1   
    24    10    14 1   
    25    10    33 1   
    26    10    44 1   
    27    11    12 1   
    28    11    34 1   
    29    11    35 1   
    30    12    13 ar  
    31    12    20 ar  
    32    13    14 1   
    33    13    17 ar  
    34    14    21 1   
    35    14    36 1   
    36    15    21 1   
    37    15    24 2   
    38    16    37 1   
    39    17    18 ar  
    40    17    38 1   
    41    18    19 ar  
    42    18    39 1   
    43    19    20 ar  
    44    19    40 1   
    45    20    41 1   
    46    21    42 1   
    47    22    43 1   
    48    44    45 1   
    49    44    46 1   
@<TRIPOS>SUBSTRUCTURE
     1 S1X         1 TEMP              0 ****  ****    0 ROOT
