@<TRIPOS>MOLECULE
S1Y
   51    52     1     0     0
SMALL
No Charge or Current Charge


@<TRIPOS>ATOM
      1 S1          -5.3290    -0.3290    -1.1180 s6         1 S1Y       1.349700
      2 O2          -5.1410    -0.7970    -2.4910 o          1 S1Y      -0.704867
      3 O3          -6.1540     0.8660    -0.9530 o          1 S1Y      -0.704867
      4 O4          -5.5020    -1.3810    -0.1140 o          1 S1Y      -0.704867
      5 N5          -3.8330     0.2720    -0.7710 n7         1 S1Y      -0.875300
      6 C6          -3.6580     0.6380     0.6640 c5         1 S1Y       0.222500
      7 C7          -2.9960     2.0440     0.6790 c5         1 S1Y      -0.128400
      8 C8          -1.5280     1.7690     0.2500 c5         1 S1Y       0.103000
      9 N9          -1.2730     0.4500     0.8640 n          1 S1Y      -0.423800
     10 C10         -2.5290    -0.2210     1.3310 c5         1 S1Y      -0.013300
     11 C11         -2.6820    -1.7210     0.9600 c          1 S1Y       0.634900
     12 O12         -2.9030    -2.6320     1.7580 o          1 S1Y      -0.530100
     13 C13         -0.0000    -0.1320     0.9780 c          1 S1Y       0.649100
     14 O14          0.1740    -1.2200     1.5040 o          1 S1Y      -0.661100
     15 N15          1.0330     0.6050     0.4570 ns         1 S1Y      -0.522900
     16 C16          2.4370     0.1910     0.4450 c3         1 S1Y       0.132700
     17 C17          2.7230    -0.6800    -0.7990 c3         1 S1Y      -0.086400
     18 C18          3.9190    -1.6470    -0.6650 c3         1 S1Y      -0.062400
     19 C19          5.1690    -1.1420     0.0910 c3         1 S1Y       0.173800
     20 N20          5.5530     0.2780    -0.1420 n3         1 S1Y      -0.742600
     21 C21          7.0290     0.4910    -0.0670 c3         1 S1Y       0.181800
     22 C22          7.8620    -0.1720    -1.2090 c3         1 S1Y       0.142800
     23 N23          9.3140     0.1470    -1.1430 n8         1 S1Y      -1.002200
     24 C24          4.8380     1.2100     0.7730 c3         1 S1Y       0.190800
     25 C25          3.3370     1.4450     0.5010 c3         1 S1Y      -0.086400
     26 HN5         -3.9660     1.1270    -1.2970 hn         1 S1Y       0.434000
     27 H6          -4.5970     0.6300     1.2410 h1         1 S1Y       0.099700
     28 H7          -3.4970     2.7690     0.0280 hc         1 S1Y       0.069700
     29 H7A         -3.0230     2.4620     1.6920 hc         1 S1Y       0.069700
     30 H8          -1.4250     1.7130    -0.8420 h1         1 S1Y       0.032200
     31 H8A         -0.8480     2.5450     0.6270 h1         1 S1Y       0.032200
     32 H10         -2.5960    -0.1470     2.4230 h1         1 S1Y       0.063700
     33 H11         -2.5320    -1.9530    -0.1180 h4         1 S1Y      -0.005800
     34 HN15         0.7870     1.4890     0.0340 hn         1 S1Y       0.304500
     35 H16          2.6160    -0.4070     1.3500 h1         1 S1Y       0.073700
     36 H17          1.8380    -1.2830    -1.0350 hc         1 S1Y       0.050200
     37 H17A         2.8800    -0.0280    -1.6670 hc         1 S1Y       0.050200
     38 H18          3.5770    -2.5640    -0.1690 hc         1 S1Y       0.040700
     39 H18A         4.2240    -1.9480    -1.6750 hc         1 S1Y       0.040700
     40 H19          5.0050    -1.3010     1.1660 h1         1 S1Y       0.026200
     41 H19A         5.9860    -1.8210    -0.1790 h1         1 S1Y       0.026200
     42 H21          7.2400     1.5690    -0.1100 h1         1 S1Y       0.032200
     43 H21A         7.4070     0.1330     0.9010 h1         1 S1Y       0.032200
     44 H22          7.7530    -1.2640    -1.1730 h1         1 S1Y       0.037700
     45 H22A         7.4760     0.1750    -2.1770 h1         1 S1Y       0.037700
     46 HN23         9.7100    -0.2660    -0.2900 hn         1 S1Y       0.390000
     47 HN2A         9.8000    -0.3520    -1.8990 hn         1 S1Y       0.390000
     48 H24          4.9520     0.8650     1.8110 h1         1 S1Y       0.026200
     49 H24A         5.3130     2.1990     0.7280 h1         1 S1Y       0.026200
     50 H25          3.2350     2.0050    -0.4370 hc         1 S1Y       0.044700
     51 H25A         2.9640     2.1080     1.2910 hc         1 S1Y       0.044700
@<TRIPOS>BOND
     1     1     2 1   
     2     1     3 1   
     3     1     4 1   
     4     1     5 1   
     5     5     6 1   
     6     5    26 1   
     7     6     7 1   
     8     6    10 1   
     9     6    27 1   
    10     7     8 1   
    11     7    28 1   
    12     7    29 1   
    13     8     9 1   
    14     8    30 1   
    15     8    31 1   
    16     9    10 1   
    17     9    13 1   
    18    10    11 1   
    19    10    32 1   
    20    11    12 2   
    21    11    33 1   
    22    13    14 2   
    23    13    15 1   
    24    15    16 1   
    25    15    34 1   
    26    16    17 1   
    27    16    25 1   
    28    16    35 1   
    29    17    18 1   
    30    17    36 1   
    31    17    37 1   
    32    18    19 1   
    33    18    38 1   
    34    18    39 1   
    35    19    20 1   
    36    19    40 1   
    37    19    41 1   
    38    20    21 1   
    39    20    24 1   
    40    21    22 1   
    41    21    42 1   
    42    21    43 1   
    43    22    23 1   
    44    22    44 1   
    45    22    45 1   
    46    23    46 1   
    47    23    47 1   
    48    24    25 1   
    49    24    48 1   
    50    24    49 1   
    51    25    50 1   
    52    25    51 1   
@<TRIPOS>SUBSTRUCTURE
     1 S1Y         1 TEMP              0 ****  ****    0 ROOT
