@<TRIPOS>MOLECULE
S1Y
   51    52     1     0     0
SMALL
abcg2


@<TRIPOS>ATOM
      1 S1          -5.4270     0.2010    -1.2430 s6         1 S1Y       1.349700
      2 O2          -5.3870    -0.2900    -2.6260 o          1 S1Y      -0.704867
      3 O3          -5.7150     1.6430    -1.1430 o          1 S1Y      -0.704867
      4 O4          -6.2520    -0.6040    -0.3330 o          1 S1Y      -0.704867
      5 N5          -3.8400    -0.0740    -0.7070 n7         1 S1Y      -0.875300
      6 C6          -3.5140     0.3960     0.6330 c5         1 S1Y       0.222500
      7 C7          -2.9920     1.8330     0.6950 c5         1 S1Y      -0.128400
      8 C8          -1.5280     1.7060     0.2820 c5         1 S1Y       0.103000
      9 N9          -1.1820     0.3560     0.7060 n          1 S1Y      -0.423800
     10 C10         -2.3180    -0.3970     1.1910 c5         1 S1Y      -0.013300
     11 C11         -2.3200    -1.8150     0.6750 c          1 S1Y       0.634900
     12 O12         -2.8440    -2.7280     1.2600 o          1 S1Y      -0.530100
     13 C13          0.0710    -0.1230     0.9290 c          1 S1Y       0.649100
     14 O14          0.2350    -1.2110     1.4830 o          1 S1Y      -0.661100
     15 N15          1.0950     0.6620     0.5230 ns         1 S1Y      -0.522900
     16 C16          2.4810     0.2220     0.5920 c3         1 S1Y       0.132700
     17 C17          2.8190    -0.7560    -0.5410 c3         1 S1Y      -0.086400
     18 C18          3.9950    -1.6860    -0.2540 c3         1 S1Y      -0.062400
     19 C19          5.1650    -1.0460     0.4850 c3         1 S1Y       0.173800
     20 N20          5.4940     0.2950     0.0210 n3         1 S1Y      -0.742600
     21 C21          6.9220     0.5090    -0.1280 c3         1 S1Y       0.181800
     22 C22          7.4620    -0.1480    -1.3900 c3         1 S1Y       0.142800
     23 N23          8.8950     0.0830    -1.5000 n8         1 S1Y      -1.002200
     24 C24          4.8380     1.3030     0.8330 c3         1 S1Y       0.190800
     25 C25          3.3530     1.4780     0.5430 c3         1 S1Y      -0.086400
     26 HN5         -3.1810     0.2540    -1.4070 hn         1 S1Y       0.434000
     27 H6          -4.3820     0.2440     1.2720 h1         1 S1Y       0.099700
     28 H7          -3.5570     2.5090     0.0570 hc         1 S1Y       0.069700
     29 H7A         -3.0580     2.1980     1.7210 hc         1 S1Y       0.069700
     30 H8          -1.3970     1.8290    -0.7980 h1         1 S1Y       0.032200
     31 H8A         -0.9040     2.4540     0.7770 h1         1 S1Y       0.032200
     32 H10         -2.3680    -0.4160     2.2860 h1         1 S1Y       0.063700
     33 H11         -1.8370    -1.9540    -0.3070 h4         1 S1Y      -0.005800
     34 HN15         0.9020     1.4430    -0.0850 hn         1 S1Y       0.304500
     35 H16          2.6070    -0.2750     1.5580 h1         1 S1Y       0.073700
     36 H17          1.9440    -1.3730    -0.7570 hc         1 S1Y       0.050200
     37 H17A         3.0170    -0.1760    -1.4470 hc         1 S1Y       0.050200
     38 H18          3.6510    -2.5370     0.3410 hc         1 S1Y       0.040700
     39 H18A         4.3470    -2.0990    -1.2040 hc         1 S1Y       0.040700
     40 H19          4.9540    -1.0290     1.5650 h1         1 S1Y       0.026200
     41 H19A         6.0340    -1.6990     0.3770 h1         1 S1Y       0.026200
     42 H21          7.1110     1.5820    -0.2050 h1         1 S1Y       0.032200
     43 H21A         7.4930     0.1550     0.7490 h1         1 S1Y       0.032200
     44 H22          7.1900    -1.2130    -1.4070 h1         1 S1Y       0.037700
     45 H22A         6.9650     0.3080    -2.2500 h1         1 S1Y       0.037700
     46 HN23         9.3770    -0.4580    -0.7930 hn         1 S1Y       0.390000
     47 HN2A         9.2270    -0.2730    -2.3870 hn         1 S1Y       0.390000
     48 H24          4.9760     1.1000     1.9090 h1         1 S1Y       0.026200
     49 H24A         5.3100     2.2680     0.6420 h1         1 S1Y       0.026200
     50 H25          3.2430     1.9290    -0.4500 hc         1 S1Y       0.044700
     51 H25A         2.9660     2.2050     1.2620 hc         1 S1Y       0.044700
@<TRIPOS>BOND
     1     1     2 1   
     2     1     3 1   
     3     1     4 1   
     4     1     5 1   
     5     5     6 1   
     6     5    26 1   
     7     6     7 1   
     8     6    10 1   
     9     6    27 1   
    10     7     8 1   
    11     7    28 1   
    12     7    29 1   
    13     8     9 1   
    14     8    30 1   
    15     8    31 1   
    16     9    10 1   
    17     9    13 1   
    18    10    11 1   
    19    10    32 1   
    20    11    12 2   
    21    11    33 1   
    22    13    14 2   
    23    13    15 1   
    24    15    16 1   
    25    15    34 1   
    26    16    17 1   
    27    16    25 1   
    28    16    35 1   
    29    17    18 1   
    30    17    36 1   
    31    17    37 1   
    32    18    19 1   
    33    18    38 1   
    34    18    39 1   
    35    19    20 1   
    36    19    40 1   
    37    19    41 1   
    38    20    21 1   
    39    20    24 1   
    40    21    22 1   
    41    21    42 1   
    42    21    43 1   
    43    22    23 1   
    44    22    44 1   
    45    22    45 1   
    46    23    46 1   
    47    23    47 1   
    48    24    25 1   
    49    24    48 1   
    50    24    49 1   
    51    25    50 1   
    52    25    51 1   
@<TRIPOS>SUBSTRUCTURE
     1 S1Y         1 TEMP              0 ****  ****    0 ROOT
