@<TRIPOS>MOLECULE
S1Z
   42    45     1     0     0
SMALL
abcg2


@<TRIPOS>ATOM
      1 N1          76.6760    67.8820    31.1690 nc         1 S1Z      -0.260600
      2 C7          77.4550    67.0360    31.8230 cd         1 S1Z      -0.165000
      3 C8          77.4780    68.4650    30.2630 cc         1 S1Z      -0.056400
      4 N2          84.0170    68.6620    27.6580 na         1 S1Z       0.012500
      5 C9          78.7840    67.9920    30.3300 cd         1 S1Z      -0.065300
      6 C1          82.0200    64.0680    31.4430 c3         1 S1Z      -0.098400
      7 C5          78.1870    65.3790    33.3560 cc         1 S1Z      -0.211000
      8 C6          77.1780    66.1420    32.8780 cd         1 S1Z       0.014000
      9 N3          83.1220    69.4900    27.1380 nc         1 S1Z      -0.283400
     10 C4          79.4960    65.5110    32.7760 cc         1 S1Z       0.601900
     11 C3          82.7860    64.2320    33.8380 c3         1 S1Z       0.144600
     12 C2          81.8630    64.8070    32.7780 c3         1 S1Z       0.245500
     13 N4          78.7390    67.0740    31.3450 na         1 S1Z       0.283900
     14 C           83.3550    64.3260    30.7560 c3         1 S1Z      -0.087100
     15 N           80.4990    64.7540    33.2610 nu         1 S1Z      -0.933100
     16 N5          79.7640    66.3370    31.7950 nd         1 S1Z      -0.600800
     17 C10         79.9430    68.3540    29.5240 ca         1 S1Z      -0.030800
     18 C15         81.1880    67.7760    29.6500 ca         1 S1Z      -0.037000
     19 C14         82.2260    68.2150    28.8010 ca         1 S1Z      -0.144000
     20 C16         83.5680    67.8790    28.6420 cc         1 S1Z      -0.201100
     21 C13         82.0110    69.2300    27.8300 ca         1 S1Z      -0.067000
     22 C12         80.7310    69.8180    27.7070 ca         1 S1Z      -0.086000
     23 C11         79.7440    69.3810    28.5370 ca         1 S1Z      -0.088000
     24 H1          77.0940    69.2100    29.5830 h4         1 S1Z       0.227000
     25 H2          84.9590    68.6680    27.2950 hn         1 S1Z       0.369000
     26 H3          81.2160    64.3920    30.7800 hc         1 S1Z       0.055200
     27 H4          81.8740    62.9960    31.6060 hc         1 S1Z       0.055200
     28 H5          78.0310    64.6770    34.1630 ha         1 S1Z       0.129000
     29 H6          76.1750    66.0830    33.2760 ha         1 S1Z       0.145000
     30 H7          82.5280    63.1750    34.0000 h1         1 S1Z       0.027200
     31 H8          83.8110    64.2540    33.4540 h1         1 S1Z       0.027200
     32 H9          82.1320    65.8590    32.6220 h1         1 S1Z       0.082700
     33 H10         83.2370    64.5970    35.6850 ho         1 S1Z       0.447000
     34 H11         83.3600    63.9060    29.7510 hc         1 S1Z       0.033367
     35 H12         83.5460    65.3980    30.6660 hc         1 S1Z       0.033367
     36 H13         84.1960    63.8900    31.2950 hc         1 S1Z       0.033367
     37 H14         80.2840    64.1410    34.0300 hn         1 S1Z       0.502000
     38 H15         81.3690    67.0040    30.3820 ha         1 S1Z       0.140000
     39 H16         84.2050    67.1690    29.1410 h4         1 S1Z       0.224000
     40 H17         80.5410    70.5940    26.9770 ha         1 S1Z       0.127000
     41 H18         78.7660    69.8330    28.4430 ha         1 S1Z       0.111000
     42 O           82.6600    64.9860    35.0210 oh         1 S1Z      -0.656000
@<TRIPOS>BOND
     1     1     2 2   
     2     1     3 1   
     3     2     8 1   
     4     2    13 1   
     5     3     5 2   
     6     3    24 1   
     7     4     9 1   
     8     4    20 1   
     9     4    25 1   
    10     5    13 1   
    11     5    17 1   
    12     6    12 1   
    13     6    14 1   
    14     6    26 1   
    15     6    27 1   
    16     7     8 2   
    17     7    10 1   
    18     7    28 1   
    19     8    29 1   
    20     9    21 2   
    21    10    15 1   
    22    10    16 2   
    23    11    12 1   
    24    11    30 1   
    25    11    31 1   
    26    11    42 1   
    27    12    15 1   
    28    12    32 1   
    29    13    16 1   
    30    14    34 1   
    31    14    35 1   
    32    14    36 1   
    33    15    37 1   
    34    17    18 ar  
    35    17    23 ar  
    36    18    19 ar  
    37    18    38 1   
    38    19    20 2   
    39    19    21 ar  
    40    20    39 1   
    41    21    22 ar  
    42    22    23 ar  
    43    22    40 1   
    44    23    41 1   
    45    33    42 1   
@<TRIPOS>SUBSTRUCTURE
     1 S1Z         1 TEMP              0 ****  ****    0 ROOT
