@<TRIPOS>MOLECULE
S1Z
   42    45     1     0     0
SMALL
No Charge or Current Charge


@<TRIPOS>ATOM
      1 N1          76.7230    67.9760    31.3570 nc         1 S1Z      -0.260600
      2 C7          77.4980    67.0650    31.9070 cd         1 S1Z      -0.165000
      3 C8          77.5060    68.5870    30.4020 cc         1 S1Z      -0.056400
      4 N2          83.9580    68.7390    27.2560 na         1 S1Z       0.012500
      5 C9          78.7900    68.0650    30.3310 cd         1 S1Z      -0.065300
      6 C1          82.2210    64.0000    31.5050 c3         1 S1Z      -0.098400
      7 C5          78.1910    65.3340    33.3260 cc         1 S1Z      -0.211000
      8 C6          77.1620    66.1630    32.9550 cd         1 S1Z       0.014000
      9 N3          83.0120    69.6840    26.8340 nc         1 S1Z      -0.283400
     10 C4          79.4580    65.4500    32.6600 cc         1 S1Z       0.601900
     11 C3          82.6770    64.0890    34.0530 c3         1 S1Z       0.144600
     12 C2          81.8730    64.6900    32.8520 c3         1 S1Z       0.245500
     13 N4          78.7420    67.0900    31.3180 na         1 S1Z       0.283900
     14 C           83.6810    64.2060    31.0450 c3         1 S1Z      -0.087100
     15 N           80.4190    64.5870    33.1060 nu         1 S1Z      -0.933100
     16 N5          79.7990    66.2800    31.6840 nd         1 S1Z      -0.600800
     17 C10         79.8900    68.4930    29.4180 ca         1 S1Z      -0.030800
     18 C15         81.1640    67.8660    29.3920 ca         1 S1Z      -0.037000
     19 C14         82.1300    68.3410    28.4950 ca         1 S1Z      -0.144000
     20 C16         83.4620    67.9090    28.2580 cc         1 S1Z      -0.201100
     21 C13         81.9100    69.3830    27.6360 ca         1 S1Z      -0.067000
     22 C12         80.6660    70.0230    27.6340 ca         1 S1Z      -0.086000
     23 C11         79.6640    69.5760    28.5220 ca         1 S1Z      -0.088000
     24 H1          77.0750    69.3860    29.8090 h4         1 S1Z       0.227000
     25 H2          84.8870    68.7080    26.8420 hn         1 S1Z       0.369000
     26 H3          81.5630    64.3870    30.7190 hc         1 S1Z       0.055200
     27 H4          82.0140    62.9260    31.5810 hc         1 S1Z       0.055200
     28 H5          78.0570    64.6010    34.1120 ha         1 S1Z       0.129000
     29 H6          76.1810    66.1340    33.4210 ha         1 S1Z       0.145000
     30 H7          82.5910    62.9950    34.0250 h1         1 S1Z       0.027200
     31 H8          83.7390    64.3390    33.9330 h1         1 S1Z       0.027200
     32 H9          82.1570    65.7500    32.7740 h1         1 S1Z       0.082700
     33 H10         82.7690    64.1940    36.0180 ho         1 S1Z       0.447000
     34 H11         83.8340    63.7560    30.0570 hc         1 S1Z       0.033367
     35 H12         83.9170    65.2750    30.9730 hc         1 S1Z       0.033367
     36 H13         84.3860    63.7380    31.7420 hc         1 S1Z       0.033367
     37 H14         80.1790    64.1830    34.0090 hn         1 S1Z       0.502000
     38 H15         81.4200    67.0310    30.0320 ha         1 S1Z       0.140000
     39 H16         84.0710    67.1220    28.6930 h4         1 S1Z       0.224000
     40 H17         80.4740    70.8530    26.9580 ha         1 S1Z       0.127000
     41 H18         78.7070    70.0870    28.5050 ha         1 S1Z       0.111000
     42 O           82.1940    64.5810    35.3210 oh         1 S1Z      -0.656000
@<TRIPOS>BOND
     1     1     2 2   
     2     1     3 1   
     3     2     8 1   
     4     2    13 1   
     5     3     5 2   
     6     3    24 1   
     7     4     9 1   
     8     4    20 1   
     9     4    25 1   
    10     5    13 1   
    11     5    17 1   
    12     6    12 1   
    13     6    14 1   
    14     6    26 1   
    15     6    27 1   
    16     7     8 2   
    17     7    10 1   
    18     7    28 1   
    19     8    29 1   
    20     9    21 2   
    21    10    15 1   
    22    10    16 2   
    23    11    12 1   
    24    11    30 1   
    25    11    31 1   
    26    11    42 1   
    27    12    15 1   
    28    12    32 1   
    29    13    16 1   
    30    14    34 1   
    31    14    35 1   
    32    14    36 1   
    33    15    37 1   
    34    17    18 ar  
    35    17    23 ar  
    36    18    19 ar  
    37    18    38 1   
    38    19    20 2   
    39    19    21 ar  
    40    20    39 1   
    41    21    22 ar  
    42    22    23 ar  
    43    22    40 1   
    44    23    41 1   
    45    33    42 1   
@<TRIPOS>SUBSTRUCTURE
     1 S1Z         1 TEMP              0 ****  ****    0 ROOT
