@<TRIPOS>MOLECULE
S20
   53    55     1     0     0
SMALL
abcg2


@<TRIPOS>ATOM
      1 C1          -0.1160     1.2700    -0.6500 ca         1 S20      -0.101000
      2 C2          -1.3330     1.9160    -0.4490 ca         1 S20      -0.077300
      3 C3          -1.3170     3.2600    -0.0850 ca         1 S20      -0.103000
      4 C4          -0.1130     3.9330     0.0670 ca         1 S20      -0.111000
      5 C5           1.0910     3.2750    -0.1390 ca         1 S20      -0.101000
      6 C6           1.0980     1.9300    -0.4960 ca         1 S20      -0.111300
      7 N11         -5.3420     0.3220     0.5500 nb         1 S20      -0.753000
      8 C12         -6.5270    -0.2510     0.3690 ca         1 S20       0.600900
      9 N12         -7.6240     0.5590     0.4260 nv         1 S20      -1.055900
     10 C13         -6.6630    -1.6210     0.0840 ca         1 S20      -0.233000
     11 C14         -5.5300    -2.4030    -0.0080 ca         1 S20       0.000700
     12 C15         -4.2870    -1.7870     0.1800 ca         1 S20      -0.216000
     13 C16         -4.2440    -0.4320     0.4540 ca         1 S20       0.397300
     14 C19         -2.6290     1.1710    -0.6010 c3         1 S20      -0.028100
     15 N21          3.8570    -1.4880    -0.2210 nb         1 S20      -0.751000
     16 C22          4.9150    -2.2690    -0.4060 ca         1 S20       0.601900
     17 N22          4.7390    -3.3820    -1.1790 nv         1 S20      -1.051900
     18 C23          6.1790    -1.9600     0.1270 ca         1 S20      -0.229000
     19 C24          6.3320    -0.8070     0.8680 ca         1 S20       0.003700
     20 C25          5.2090     0.0090     1.0540 ca         1 S20      -0.214000
     21 C26          4.0040    -0.3720     0.4950 ca         1 S20       0.402300
     22 C28          2.7760     0.4790     0.6440 c3         1 S20      -0.163700
     23 C29          2.3880     1.1600    -0.6750 c3         1 S20       0.220600
     24 O29          3.4380     1.9520    -1.1740 oh         1 S20      -0.645000
     25 H1          -0.1150     0.2230    -0.9410 ha         1 S20       0.113000
     26 H3          -2.2530     3.7840     0.0730 ha         1 S20       0.114000
     27 H4          -0.1120     4.9800     0.3410 ha         1 S20       0.111000
     28 H5           2.0180     3.8230    -0.0220 ha         1 S20       0.109000
     29 HN12        -7.5020     1.4400     0.8990 hn         1 S20       0.468500
     30 HN1A        -8.5160     0.1240     0.5930 hn         1 S20       0.468500
     31 H13         -7.6470    -2.0510    -0.0620 ha         1 S20       0.118000
     32 H15         -3.3710    -2.3600     0.1110 ha         1 S20       0.121000
     33 H17         -4.9470    -4.1550    -1.1020 hc         1 S20       0.046367
     34 H17A        -5.3160    -4.4490     0.5870 hc         1 S20       0.046367
     35 H17B        -6.6270    -4.1730    -0.5590 hc         1 S20       0.046367
     36 H19         -3.4490     1.8790    -0.7390 hc         1 S20       0.057200
     37 H19A        -2.5960     0.5440    -1.4960 hc         1 S20       0.057200
     38 HN22         3.7890    -3.6960    -1.2900 hn         1 S20       0.466500
     39 HN2A         5.4040    -4.1290    -1.0700 hn         1 S20       0.466500
     40 H23          7.0160    -2.6270    -0.0430 ha         1 S20       0.119000
     41 H25          5.2790     0.9190     1.6370 ha         1 S20       0.118000
     42 H28          1.9380    -0.1350     0.9810 hc         1 S20       0.060700
     43 H28A         2.9330     1.2450     1.4100 hc         1 S20       0.060700
     44 H29          2.2220     0.3780    -1.4230 h1         1 S20       0.094700
     45 HO29         3.8410     2.4400    -0.4490 ho         1 S20       0.436000
     46 C27          7.6590    -0.4180     1.4430 c3         1 S20      -0.053800
     47 C18         -2.9340     0.2850     0.6150 c3         1 S20      -0.124700
     48 C17         -5.6160    -3.8720    -0.2890 c3         1 S20      -0.053800
     49 H18         -2.9650     0.9070     1.5140 hc         1 S20       0.055200
     50 H18A        -2.1280    -0.4400     0.7510 hc         1 S20       0.055200
     51 H27          8.0670     0.4420     0.9090 hc         1 S20       0.046367
     52 H27A         7.5650    -0.1280     2.4900 hc         1 S20       0.046367
     53 H27B         8.3840    -1.2270     1.3750 hc         1 S20       0.046367
@<TRIPOS>BOND
     1     1     2 ar  
     2     1     6 ar  
     3     1    25 1   
     4     2     3 ar  
     5     2    14 1   
     6     3     4 ar  
     7     3    26 1   
     8     4     5 ar  
     9     4    27 1   
    10     5     6 ar  
    11     5    28 1   
    12     6    23 1   
    13     7     8 ar  
    14     7    13 ar  
    15     8     9 1   
    16     8    10 ar  
    17     9    29 1   
    18     9    30 1   
    19    10    11 ar  
    20    10    31 1   
    21    11    12 ar  
    22    11    48 1   
    23    12    13 ar  
    24    12    32 1   
    25    13    47 1   
    26    14    36 1   
    27    14    37 1   
    28    14    47 1   
    29    15    16 ar  
    30    15    21 ar  
    31    16    17 1   
    32    16    18 ar  
    33    17    38 1   
    34    17    39 1   
    35    18    19 ar  
    36    18    40 1   
    37    19    20 ar  
    38    19    46 1   
    39    20    21 ar  
    40    20    41 1   
    41    21    22 1   
    42    22    23 1   
    43    22    42 1   
    44    22    43 1   
    45    23    24 1   
    46    23    44 1   
    47    24    45 1   
    48    33    48 1   
    49    34    48 1   
    50    35    48 1   
    51    46    51 1   
    52    46    52 1   
    53    46    53 1   
    54    47    49 1   
    55    47    50 1   
@<TRIPOS>SUBSTRUCTURE
     1 S20         1 TEMP              0 ****  ****    0 ROOT
