@<TRIPOS>MOLECULE
S20
   53    55     1     0     0
SMALL
No Charge or Current Charge


@<TRIPOS>ATOM
      1 C1          -0.1360     1.1010    -0.4160 ca         1 S20      -0.101000
      2 C2          -1.3420     1.7940    -0.1960 ca         1 S20      -0.077300
      3 C3          -1.3070     3.0920     0.3450 ca         1 S20      -0.103000
      4 C4          -0.0770     3.6930     0.6580 ca         1 S20      -0.111000
      5 C5           1.1240     2.9990     0.4350 ca         1 S20      -0.101000
      6 C6           1.1040     1.6950    -0.1020 ca         1 S20      -0.111300
      7 N11         -5.6690     0.2340     0.7590 nb         1 S20      -0.753000
      8 C12         -6.8210    -0.3500     0.4640 ca         1 S20       0.600900
      9 N12         -7.8500     0.3360     0.9650 nv         1 S20      -1.055900
     10 C13         -6.9610    -1.5350    -0.2600 ca         1 S20      -0.233000
     11 C14         -5.8030    -2.1710    -0.7300 ca         1 S20       0.000700
     12 C15         -4.5700    -1.5680    -0.4300 ca         1 S20      -0.216000
     13 C16         -4.5450    -0.3720     0.3140 ca         1 S20       0.397300
     14 C19         -2.6750     1.1380    -0.5310 c3         1 S20      -0.028100
     15 N21          4.0930    -1.5680     0.8270 nb         1 S20      -0.751000
     16 C22          5.1060    -2.4050     0.6610 ca         1 S20       0.601900
     17 N22          4.7040    -3.6740     0.7610 nv         1 S20      -1.051900
     18 C23          6.4300    -2.0300     0.4270 ca         1 S20      -0.229000
     19 C24          6.7340    -0.6620     0.3540 ca         1 S20       0.003700
     20 C25          5.6730     0.2420     0.5220 ca         1 S20      -0.214000
     21 C26          4.3720    -0.2470     0.7520 ca         1 S20       0.402300
     22 C28          3.2030     0.6990     0.9510 c3         1 S20      -0.163700
     23 C29          2.4030     0.9260    -0.3470 c3         1 S20       0.220600
     24 O29          3.2110     1.6510    -1.2780 oh         1 S20      -0.645000
     25 H1          -0.1650     0.0950    -0.8290 ha         1 S20       0.113000
     26 H3          -2.2320     3.6360     0.5240 ha         1 S20       0.114000
     27 H4          -0.0540     4.6980     1.0740 ha         1 S20       0.111000
     28 H5           2.0700     3.4770     0.6780 ha         1 S20       0.109000
     29 HN12        -7.5970     1.0290     1.6590 hn         1 S20       0.468500
     30 HN1A        -8.7180    -0.1640     1.1180 hn         1 S20       0.468500
     31 H13         -7.9460    -1.9490    -0.4540 ha         1 S20       0.118000
     32 H15         -3.6400    -2.0170    -0.7660 ha         1 S20       0.121000
     33 H17         -5.0600    -3.5290    -2.2540 hc         1 S20       0.046367
     34 H17A        -5.8060    -4.3340    -0.8620 hc         1 S20       0.046367
     35 H17B        -6.8200    -3.5390    -2.0790 hc         1 S20       0.046367
     36 H19         -3.4140     1.9010    -0.8070 hc         1 S20       0.057200
     37 H19A        -2.5640     0.4910    -1.4100 hc         1 S20       0.057200
     38 HN22         3.7830    -3.7950     1.1630 hn         1 S20       0.466500
     39 HN2A         5.4010    -4.3700     1.0000 hn         1 S20       0.466500
     40 H23          7.2030    -2.7820     0.3030 ha         1 S20       0.119000
     41 H25          5.8470     1.3130     0.4700 ha         1 S20       0.118000
     42 H28          2.5270     0.2950     1.7140 hc         1 S20       0.060700
     43 H28A         3.5580     1.6600     1.3400 hc         1 S20       0.060700
     44 H29          2.1480    -0.0620    -0.7610 h1         1 S20       0.094700
     45 HO29         2.6110     1.9370    -1.9990 ho         1 S20       0.436000
     46 C27          8.1510    -0.1790     0.0970 c3         1 S20      -0.053800
     47 C18         -3.2250     0.3060     0.6470 c3         1 S20      -0.124700
     48 C17         -5.8760    -3.4640    -1.5250 c3         1 S20      -0.053800
     49 H18         -3.3380     0.9570     1.5230 hc         1 S20       0.055200
     50 H18A        -2.4840    -0.4530     0.9250 hc         1 S20       0.055200
     51 H27          8.3290    -0.0470    -0.9760 hc         1 S20       0.046367
     52 H27A         8.3390     0.7830     0.5900 hc         1 S20       0.046367
     53 H27B         8.8910    -0.8940     0.4750 hc         1 S20       0.046367
@<TRIPOS>BOND
     1     1     2 ar  
     2     1     6 ar  
     3     1    25 1   
     4     2     3 ar  
     5     2    14 1   
     6     3     4 ar  
     7     3    26 1   
     8     4     5 ar  
     9     4    27 1   
    10     5     6 ar  
    11     5    28 1   
    12     6    23 1   
    13     7     8 ar  
    14     7    13 ar  
    15     8     9 1   
    16     8    10 ar  
    17     9    29 1   
    18     9    30 1   
    19    10    11 ar  
    20    10    31 1   
    21    11    12 ar  
    22    11    48 1   
    23    12    13 ar  
    24    12    32 1   
    25    13    47 1   
    26    14    36 1   
    27    14    37 1   
    28    14    47 1   
    29    15    16 ar  
    30    15    21 ar  
    31    16    17 1   
    32    16    18 ar  
    33    17    38 1   
    34    17    39 1   
    35    18    19 ar  
    36    18    40 1   
    37    19    20 ar  
    38    19    46 1   
    39    20    21 ar  
    40    20    41 1   
    41    21    22 1   
    42    22    23 1   
    43    22    42 1   
    44    22    43 1   
    45    23    24 1   
    46    23    44 1   
    47    24    45 1   
    48    33    48 1   
    49    34    48 1   
    50    35    48 1   
    51    46    51 1   
    52    46    52 1   
    53    46    53 1   
    54    47    49 1   
    55    47    50 1   
@<TRIPOS>SUBSTRUCTURE
     1 S20         1 TEMP              0 ****  ****    0 ROOT
