@<TRIPOS>MOLECULE
S21
   24    24     1     0     0
SMALL
No Charge or Current Charge


@<TRIPOS>ATOM
      1 C1          -1.5770    -1.2000     0.6080 ca         1 S21      -0.075000
      2 C2          -2.9240    -1.2280     0.2090 ca         1 S21      -0.058000
      3 C3          -3.5620    -0.0490    -0.2400 ca         1 S21      -0.149200
      4 C4          -2.8230     1.1560    -0.2720 ca         1 S21      -0.058000
      5 C5          -1.4750     1.1790     0.1270 ca         1 S21      -0.075000
      6 C6          -0.8300    -0.0020     0.5630 ca         1 S21      -0.135600
      7 C7           0.6180    -0.0200     1.0050 c          1 S21       0.591700
      8 O8           0.9840    -0.7850     1.8860 o          1 S21      -0.486100
      9 C9           1.6370     0.9000     0.3480 c3         1 S21      -0.286400
     10 C10          2.3910     0.0670    -0.6830 c          1 S21       0.532100
     11 O11          1.8630    -0.2090    -1.7540 o          1 S21      -0.419100
     12 C12          3.8370    -0.3740    -0.3260 c3         1 S21       0.205000
     13 N13         -5.0000    -0.0740    -0.6660 no         1 S21       0.691200
     14 F1C          4.3700    -1.1750    -1.2800 f          1 S21      -0.099667
     15 O1N         -5.6070    -1.1530    -0.6170 o          1 S21      -0.388500
     16 F2C          4.6580     0.6940    -0.1960 f          1 S21      -0.099667
     17 O2N         -5.5160     0.9840    -1.0510 o          1 S21      -0.388500
     18 F3C          3.8780    -1.0620     0.8400 f          1 S21      -0.099667
     19 H1          -1.1090    -2.1230     0.9480 ha         1 S21       0.139000
     20 H2          -3.4640    -2.1720     0.2520 ha         1 S21       0.159000
     21 H4          -3.2870     2.0840    -0.6010 ha         1 S21       0.159000
     22 H5          -0.9520     2.1320     0.1120 ha         1 S21       0.139000
     23 H9           1.1450     1.7110    -0.1930 hc         1 S21       0.101700
     24 H9A          2.3330     1.2530     1.1160 hc         1 S21       0.101700
@<TRIPOS>BOND
     1     1     2 ar  
     2     1     6 ar  
     3     1    19 1   
     4     2     3 ar  
     5     2    20 1   
     6     3     4 ar  
     7     3    13 1   
     8     4     5 ar  
     9     4    21 1   
    10     5     6 ar  
    11     5    22 1   
    12     6     7 1   
    13     7     8 2   
    14     7     9 1   
    15     9    10 1   
    16     9    23 1   
    17     9    24 1   
    18    10    11 2   
    19    10    12 1   
    20    12    14 1   
    21    12    16 1   
    22    12    18 1   
    23    13    15 1   
    24    13    17 1   
@<TRIPOS>SUBSTRUCTURE
     1 S21         1 TEMP              0 ****  ****    0 ROOT
