@<TRIPOS>MOLECULE
S21
   24    24     1     0     0
SMALL
abcg2


@<TRIPOS>ATOM
      1 C1          -1.7270    -1.3660     0.3020 ca         1 S21      -0.075000
      2 C2          -3.0770    -1.1150     0.4530 ca         1 S21      -0.058000
      3 C3          -3.5530     0.1570     0.1700 ca         1 S21      -0.149200
      4 C4          -2.7170     1.1760    -0.2550 ca         1 S21      -0.058000
      5 C5          -1.3660     0.9100    -0.3950 ca         1 S21      -0.075000
      6 C6          -0.8610    -0.3580    -0.1200 ca         1 S21      -0.135600
      7 C7           0.5860    -0.6740    -0.2720 c          1 S21       0.591700
      8 O8           1.0030    -1.7980    -0.1260 o          1 S21      -0.486100
      9 C9           1.5230     0.4620    -0.6310 c3         1 S21      -0.286400
     10 C10          2.9390    -0.0400    -0.6850 c          1 S21       0.532100
     11 O11          3.4620    -0.4910    -1.6610 o          1 S21      -0.419100
     12 C12          3.7400     0.0680     0.6230 c3         1 S21       0.205000
     13 N13         -4.9800     0.4300     0.3240 no         1 S21       0.691200
     14 F1C          4.8930    -0.5760     0.5480 f          1 S21      -0.099667
     15 O1N         -5.6870    -0.4660     0.7130 o          1 S21      -0.388500
     16 F2C          3.9890     1.3550     0.8800 f          1 S21      -0.099667
     17 O2N         -5.3740     1.5380     0.0530 o          1 S21      -0.388500
     18 F3C          3.0440    -0.4270     1.6480 f          1 S21      -0.099667
     19 H1          -1.3470    -2.3550     0.5210 ha         1 S21       0.139000
     20 H2          -3.7360    -1.9040     0.7840 ha         1 S21       0.159000
     21 H4          -3.0960     2.1630    -0.4760 ha         1 S21       0.159000
     22 H5          -0.7210     1.7120    -0.7250 ha         1 S21       0.139000
     23 H9           1.2500     0.8500    -1.6160 hc         1 S21       0.101700
     24 H9A          1.4030     1.2840     0.0800 hc         1 S21       0.101700
@<TRIPOS>BOND
     1     1     2 ar  
     2     1     6 ar  
     3     1    19 1   
     4     2     3 ar  
     5     2    20 1   
     6     3     4 ar  
     7     3    13 1   
     8     4     5 ar  
     9     4    21 1   
    10     5     6 ar  
    11     5    22 1   
    12     6     7 1   
    13     7     8 2   
    14     7     9 1   
    15     9    10 1   
    16     9    23 1   
    17     9    24 1   
    18    10    11 2   
    19    10    12 1   
    20    12    14 1   
    21    12    16 1   
    22    12    18 1   
    23    13    15 1   
    24    13    17 1   
@<TRIPOS>SUBSTRUCTURE
     1 S21         1 TEMP              0 ****  ****    0 ROOT
