@<TRIPOS>MOLECULE
S22
   71    75     1     0     0
SMALL
bcc


@<TRIPOS>ATOM
      1 CAT          7.4130     1.2750    -0.2640 c6         1 S22       0.201800
      2 CAU          8.7830     1.3680     0.3950 c6         1 S22      -0.100400
      3 CAV          9.7060     0.2760    -0.1100 c6         1 S22       0.149100
      4 OAY         10.9400     0.3890     0.5650 oh         1 S22      -0.592800
      5 CAW          9.0410    -1.0770     0.1030 c6         1 S22      -0.100400
      6 CAX          7.6720    -1.1090    -0.5570 c6         1 S22       0.201800
      7 NAS          6.8250    -0.0340    -0.0560 nh         1 S22      -0.653000
      8 CAN          5.4470    -0.1650    -0.2450 ca         1 S22       0.176600
      9 CAO          4.8080    -1.3440     0.1700 ca         1 S22      -0.238000
     10 CAP          3.4380    -1.5010     0.0460 ca         1 S22       0.128100
     11 OAQ          2.7690    -2.6040     0.4380 os         1 S22      -0.332900
     12 CAR          3.4950    -3.6870     0.9830 c3         1 S22       0.128700
     13 CAM          4.6590     0.8420    -0.8000 ca         1 S22      -0.209000
     14 CAL          3.2840     0.6780    -0.9260 ca         1 S22      -0.066000
     15 CAK          2.6460    -0.4780    -0.5080 ca         1 S22       0.101600
     16 NAJ          1.2680    -0.6860    -0.6410 nu         1 S22      -0.743300
     17 CAA          0.2740     0.1750    -0.2570 ca         1 S22       0.725200
     18 CAB         -1.0640    -0.2770    -0.3590 ca         1 S22      -0.364300
     19 NAF          0.5960     1.3820     0.1730 nb         1 S22      -0.764000
     20 CAE         -0.4290     2.1510     0.5270 ca         1 S22       0.490800
     21 NAI         -0.3170     3.4020     1.0420 na         1 S22      -0.276100
     22 CAH         -1.5650     3.8790     1.3570 cc         1 S22      -0.129100
     23 CAG         -2.5050     2.9450     1.0400 cd         1 S22      -0.153200
     24 CAD         -1.7990     1.8270     0.4950 ca         1 S22      -0.276100
     25 CAC         -2.1090     0.5410     0.0190 ca         1 S22       0.268600
     26 NAZ         -3.4090     0.0260    -0.0120 nu         1 S22      -0.662000
     27 CBA         -4.5340     0.6870    -0.4250 ca         1 S22       0.293600
     28 CBF         -4.4340     1.8460    -1.2140 ca         1 S22      -0.210000
     29 CBE         -5.5570     2.5320    -1.6260 ca         1 S22      -0.039000
     30 CBD         -6.8350     2.0910    -1.2940 ca         1 S22      -0.196000
     31 CBC         -6.9630     0.9260    -0.5680 ca         1 S22      -0.008000
     32 CBB         -5.8370     0.2220    -0.1430 ca         1 S22      -0.343500
     33 SBG         -6.1270    -1.3050     0.7050 sy         1 S22       1.057300
     34 OBH         -5.0830    -1.4860     1.7230 o          1 S22      -0.599300
     35 OBI         -7.5190    -1.3370     1.1530 o          1 S22      -0.599300
     36 CBJ         -5.8980    -2.5880    -0.5520 c3         1 S22      -0.144900
     37 CBL         -5.9650    -3.9450     0.1360 c3         1 S22      -0.078600
     38 CBK         -6.9240    -2.4440    -1.6610 c3         1 S22      -0.078600
     39 HAT          6.7650     2.0330     0.1770 h1         1 S22       0.038200
     40 HATA         7.5050     1.5140    -1.3350 h1         1 S22       0.038200
     41 HAU          9.2040     2.3540     0.1880 hc         1 S22       0.058200
     42 HAUA         8.6690     1.2780     1.4800 hc         1 S22       0.058200
     43 HAV          9.8450     0.4200    -1.1940 h1         1 S22       0.024700
     44 HOAY        11.5300    -0.2920     0.2270 ho         1 S22       0.403000
     45 HAW          9.6550    -1.8790    -0.3180 hc         1 S22       0.058200
     46 HAWA         8.9360    -1.2680     1.1750 hc         1 S22       0.058200
     47 HAX          7.7880    -1.0280    -1.6500 h1         1 S22       0.038200
     48 HAXA         7.2060    -2.0720    -0.3640 h1         1 S22       0.038200
     49 HAO          5.3950    -2.1220     0.6380 ha         1 S22       0.139000
     50 HAR          4.2260    -4.0880     0.2750 h1         1 S22       0.041367
     51 HARA         4.0140    -3.4080     1.9040 h1         1 S22       0.041367
     52 HARB         2.7670    -4.4620     1.2120 h1         1 S22       0.041367
     53 HAM          5.0970     1.7600    -1.1630 ha         1 S22       0.134000
     54 HAL          2.7030     1.4710    -1.3740 ha         1 S22       0.150000
     55 HNAJ         0.9780    -1.6400    -0.7850 hn         1 S22       0.448800
     56 HAB         -1.2700    -1.2730    -0.7330 ha         1 S22       0.142000
     57 HNAI         0.5500     3.8890     1.1980 hn         1 S22       0.308700
     58 HAH         -1.6840     4.8590     1.7900 h4         1 S22       0.166000
     59 HAG         -3.5680     3.0500     1.1820 ha         1 S22       0.162000
     60 HNAZ        -3.5270    -0.8450     0.4830 hn         1 S22       0.463800
     61 HBF         -3.4590     2.2080    -1.5040 ha         1 S22       0.152000
     62 HBE         -5.4310     3.4230    -2.2270 ha         1 S22       0.133000
     63 HBD         -7.7120     2.6350    -1.6120 ha         1 S22       0.139000
     64 HBC         -7.9480     0.5520    -0.3260 ha         1 S22       0.155000
     65 HBJ         -4.8900    -2.4190    -0.9450 h1         1 S22       0.086700
     66 HBL         -6.9510    -4.1230     0.5650 hc         1 S22       0.052533
     67 HBLA        -5.7840    -4.7190    -0.6100 hc         1 S22       0.052533
     68 HBLB        -5.2150    -4.0540     0.9160 hc         1 S22       0.052533
     69 HBK         -6.8560    -1.4860    -2.1750 hc         1 S22       0.052533
     70 HBKA        -6.7450    -3.2230    -2.4010 hc         1 S22       0.052533
     71 HBKB        -7.9380    -2.5700    -1.2820 hc         1 S22       0.052533
@<TRIPOS>BOND
     1     1     2 1   
     2     1     7 1   
     3     1    39 1   
     4     1    40 1   
     5     2     3 1   
     6     2    41 1   
     7     2    42 1   
     8     3     4 1   
     9     3     5 1   
    10     3    43 1   
    11     4    44 1   
    12     5     6 1   
    13     5    45 1   
    14     5    46 1   
    15     6     7 1   
    16     6    47 1   
    17     6    48 1   
    18     7     8 1   
    19     8     9 ar  
    20     8    13 ar  
    21     9    10 ar  
    22     9    49 1   
    23    10    11 1   
    24    10    15 ar  
    25    11    12 1   
    26    12    50 1   
    27    12    51 1   
    28    12    52 1   
    29    13    14 ar  
    30    13    53 1   
    31    14    15 ar  
    32    14    54 1   
    33    15    16 1   
    34    16    17 1   
    35    16    55 1   
    36    17    18 ar  
    37    17    19 ar  
    38    18    25 ar  
    39    18    56 1   
    40    19    20 ar  
    41    20    21 1   
    42    20    24 ar  
    43    21    22 1   
    44    21    57 1   
    45    22    23 2   
    46    22    58 1   
    47    23    24 1   
    48    23    59 1   
    49    24    25 ar  
    50    25    26 1   
    51    26    27 1   
    52    26    60 1   
    53    27    28 ar  
    54    27    32 ar  
    55    28    29 ar  
    56    28    61 1   
    57    29    30 ar  
    58    29    62 1   
    59    30    31 ar  
    60    30    63 1   
    61    31    32 ar  
    62    31    64 1   
    63    32    33 1   
    64    33    34 2   
    65    33    35 2   
    66    33    36 1   
    67    36    37 1   
    68    36    38 1   
    69    36    65 1   
    70    37    66 1   
    71    37    67 1   
    72    37    68 1   
    73    38    69 1   
    74    38    70 1   
    75    38    71 1   
@<TRIPOS>SUBSTRUCTURE
     1 S22         1 TEMP              0 ****  ****    0 ROOT
