@<TRIPOS>MOLECULE
S22
   71    75     1     0     0
SMALL
No Charge or Current Charge


@<TRIPOS>ATOM
      1 CAT          7.5700     1.2430    -0.0110 c6         1 S22       0.201800
      2 CAU          8.9870     1.0080     0.5600 c6         1 S22      -0.100400
      3 CAV          9.8000     0.0620    -0.3500 c6         1 S22       0.172300
      4 OAY         11.0840    -0.1910     0.2300 oh         1 S22      -0.655000
      5 CAW          9.0320    -1.2630    -0.5510 c6         1 S22      -0.100400
      6 CAX          7.6170    -0.9970    -1.1120 c6         1 S22       0.201800
      7 NAS          6.8670    -0.0500    -0.2420 nh         1 S22      -0.791400
      8 CAN          5.4600    -0.1360    -0.1640 ca         1 S22       0.315000
      9 CAO          4.8630    -1.3350     0.2560 ca         1 S22      -0.220000
     10 CAP          3.4580    -1.4490     0.3410 ca         1 S22       0.128100
     11 OAQ          2.8490    -2.6310     0.7430 os         1 S22      -0.356100
     12 CAR          3.6000    -3.8070     1.0970 c3         1 S22       0.151900
     13 CAM          4.6420     0.9530    -0.5080 ca         1 S22      -0.191000
     14 CAL          3.2430     0.8520    -0.4270 ca         1 S22      -0.048000
     15 CAK          2.6310    -0.3410     0.0130 ca         1 S22       0.240000
     16 NAJ          1.2300    -0.4870     0.0920 nu         1 S22      -0.936900
     17 CAA          0.1580     0.3630     0.2400 ca         1 S22       0.659900
     18 CAB         -1.1430    -0.1310     0.0970 ca         1 S22      -0.281000
     19 NAF          0.4510     1.6260     0.5740 nb         1 S22      -0.764000
     20 CAE         -0.5870     2.4520     0.7590 ca         1 S22       0.425500
     21 NAI         -0.5940     3.7840     1.1290 na         1 S22      -0.326400
     22 CAH         -1.9070     4.2880     1.2650 cc         1 S22      -0.179100
     23 CAG         -2.7080     3.2060     0.9540 cd         1 S22      -0.203200
     24 CAD         -1.8910     2.0580     0.6240 ca         1 S22      -0.210800
     25 CAC         -2.2090     0.7460     0.2680 ca         1 S22       0.407000
     26 NAZ         -3.5100     0.2830     0.1330 nu         1 S22      -0.994000
     27 CBA         -4.6430     0.7790    -0.5020 ca         1 S22       0.432000
     28 CBF         -4.5130     1.8730    -1.3760 ca         1 S22      -0.192000
     29 CBE         -5.6310     2.4200    -2.0240 ca         1 S22      -0.021000
     30 CBD         -6.8960     1.8600    -1.8090 ca         1 S22      -0.178000
     31 CBC         -7.0380     0.7480    -0.9660 ca         1 S22       0.010000
     32 CBB         -5.9120     0.1940    -0.3160 ca         1 S22      -0.343500
     33 SBG         -6.1550    -1.2900     0.6760 sy         1 S22       1.026500
     34 OBH         -5.1190    -1.3480     1.7160 o          1 S22      -0.528500
     35 OBI         -7.5780    -1.3960     1.0260 o          1 S22      -0.528500
     36 CBJ         -5.7840    -2.6540    -0.4900 c3         1 S22      -0.255700
     37 CBL         -5.8580    -4.0330     0.2150 c3         1 S22      -0.078600
     38 CBK         -6.6750    -2.6110    -1.7600 c3         1 S22      -0.078600
     39 HAT          7.0060     1.8640     0.7010 h1         1 S22       0.038200
     40 HATA         7.6450     1.8040    -0.9550 h1         1 S22       0.038200
     41 HAU          9.5050     1.9700     0.6650 hc         1 S22       0.058200
     42 HAUA         8.9060     0.5800     1.5690 hc         1 S22       0.058200
     43 HAV          9.9260     0.5470    -1.3300 h1         1 S22       0.024700
     44 HOAY        11.5870    -0.7260    -0.4220 ho         1 S22       0.442000
     45 HAW          9.5810    -1.9200    -1.2380 hc         1 S22       0.058200
     46 HAWA         8.9500    -1.8000     0.4040 hc         1 S22       0.058200
     47 HAX          7.7010    -0.5820    -2.1280 h1         1 S22       0.038200
     48 HAXA         7.0850    -1.9560    -1.1980 h1         1 S22       0.038200
     49 HAO          5.5090    -2.1640     0.5200 ha         1 S22       0.121000
     50 HAR          4.2080    -4.1510     0.2500 h1         1 S22       0.041367
     51 HARA         4.2620    -3.6060     1.9490 h1         1 S22       0.041367
     52 HARB         2.9210    -4.6210     1.3800 h1         1 S22       0.041367
     53 HAM          5.0840     1.8810    -0.8590 ha         1 S22       0.116000
     54 HAL          2.6400     1.7020    -0.7260 ha         1 S22       0.132000
     55 HNAJ         0.9490    -1.4600     0.1830 hn         1 S22       0.504000
     56 HAB         -1.3170    -1.1690    -0.1620 ha         1 S22       0.124000
     57 HNAI         0.2570     4.3090     1.2870 hn         1 S22       0.359000
     58 HAH         -2.1440     5.3090     1.5620 h4         1 S22       0.216000
     59 HAG         -3.7970     3.2200     0.9740 ha         1 S22       0.212000
     60 HNAZ        -3.7020    -0.5320     0.7160 hn         1 S22       0.519000
     61 HBF         -3.5370     2.3090    -1.5620 ha         1 S22       0.134000
     62 HBE         -5.5150     3.2720    -2.6910 ha         1 S22       0.115000
     63 HBD         -7.7670     2.2770    -2.3090 ha         1 S22       0.121000
     64 HBC         -8.0290     0.3130    -0.8360 ha         1 S22       0.137000
     65 HBJ         -4.7460    -2.4880    -0.8010 h1         1 S22       0.086700
     66 HBL         -6.8740    -4.2390     0.5730 hc         1 S22       0.052533
     67 HBLA        -5.5710    -4.8360    -0.4760 hc         1 S22       0.052533
     68 HBLB        -5.1760    -4.0730     1.0740 hc         1 S22       0.052533
     69 HBK         -6.5290    -1.6780    -2.3160 hc         1 S22       0.052533
     70 HBKA        -6.4220    -3.4370    -2.4350 hc         1 S22       0.052533
     71 HBKB        -7.7380    -2.6980    -1.5020 hc         1 S22       0.052533
@<TRIPOS>BOND
     1     1     2 1   
     2     1     7 1   
     3     1    39 1   
     4     1    40 1   
     5     2     3 1   
     6     2    41 1   
     7     2    42 1   
     8     3     4 1   
     9     3     5 1   
    10     3    43 1   
    11     4    44 1   
    12     5     6 1   
    13     5    45 1   
    14     5    46 1   
    15     6     7 1   
    16     6    47 1   
    17     6    48 1   
    18     7     8 1   
    19     8     9 ar  
    20     8    13 ar  
    21     9    10 ar  
    22     9    49 1   
    23    10    11 1   
    24    10    15 ar  
    25    11    12 1   
    26    12    50 1   
    27    12    51 1   
    28    12    52 1   
    29    13    14 ar  
    30    13    53 1   
    31    14    15 ar  
    32    14    54 1   
    33    15    16 1   
    34    16    17 1   
    35    16    55 1   
    36    17    18 ar  
    37    17    19 ar  
    38    18    25 ar  
    39    18    56 1   
    40    19    20 ar  
    41    20    21 1   
    42    20    24 ar  
    43    21    22 1   
    44    21    57 1   
    45    22    23 2   
    46    22    58 1   
    47    23    24 1   
    48    23    59 1   
    49    24    25 ar  
    50    25    26 1   
    51    26    27 1   
    52    26    60 1   
    53    27    28 ar  
    54    27    32 ar  
    55    28    29 ar  
    56    28    61 1   
    57    29    30 ar  
    58    29    62 1   
    59    30    31 ar  
    60    30    63 1   
    61    31    32 ar  
    62    31    64 1   
    63    32    33 1   
    64    33    34 2   
    65    33    35 2   
    66    33    36 1   
    67    36    37 1   
    68    36    38 1   
    69    36    65 1   
    70    37    66 1   
    71    37    67 1   
    72    37    68 1   
    73    38    69 1   
    74    38    70 1   
    75    38    71 1   
@<TRIPOS>SUBSTRUCTURE
     1 S22         1 TEMP              0 ****  ****    0 ROOT
