@<TRIPOS>MOLECULE
S23
   54    55     1     0     0
SMALL
abcg2


@<TRIPOS>ATOM
      1 O2          -2.3790     0.3500     2.0650 o          1 S23      -0.797000
      2 P           -1.1580     0.9630     1.4140 p5         1 S23       1.346000
      3 O1           0.1940     0.7530     2.1040 o          1 S23      -0.797000
      4 C1          -1.4530     2.7790     1.2060 c3         1 S23      -0.192500
      5 N1          -2.7150     3.0800     0.5300 n8         1 S23      -1.003200
      6 C2          -1.4200     3.4630     2.5680 c3         1 S23      -0.052100
      7 C3          -1.0260     0.3520    -0.3190 c3         1 S23      -0.436400
      8 C4          -0.7850    -1.1670    -0.4230 c3         1 S23      -0.097700
      9 C6          -1.5750    -1.7840    -1.5830 c3         1 S23      -0.022100
     10 C7          -3.0630    -1.6050    -1.4530 ca         1 S23      -0.046300
     11 C8          -3.7940    -0.9540    -2.4440 ca         1 S23      -0.100000
     12 C10         -5.1720    -0.8030    -2.3400 ca         1 S23      -0.118500
     13 C12         -5.8440    -1.3040    -1.2350 ca         1 S23      -0.139000
     14 C11         -5.1270    -1.9530    -0.2370 ca         1 S23      -0.118500
     15 C9          -3.7520    -2.0970    -0.3450 ca         1 S23      -0.100000
     16 C5           0.7010    -1.5240    -0.5430 c          1 S23       0.599100
     17 O3           1.0990    -2.3360    -1.3770 o          1 S23      -0.696100
     18 N2           1.5060    -0.8950     0.3110 ns         1 S23      -0.467900
     19 C13          2.9130    -1.1670     0.4170 c3         1 S23      -0.017300
     20 C14          3.2400    -2.3440     1.3770 c          1 S23       0.717000
     21 O4           2.2920    -2.9250     1.9280 o          1 S23      -0.735000
     22 O5           4.4560    -2.6040     1.4970 o          1 S23      -0.735000
     23 C15          3.6490     0.1130     0.8410 c3         1 S23      -0.044100
     24 C16          3.5530     1.2010    -0.1910 ca         1 S23      -0.031300
     25 C17          4.5040     1.2930    -1.2050 ca         1 S23      -0.110500
     26 C19          4.4090     2.2670    -2.1910 ca         1 S23      -0.129000
     27 C21          3.3530     3.1700    -2.1780 ca         1 S23      -0.150000
     28 C20          2.3990     3.0900    -1.1710 ca         1 S23      -0.129000
     29 C18          2.4990     2.1140    -0.1870 ca         1 S23      -0.110500
     30 H1          -0.6430     3.1920     0.5940 h1         1 S23       0.045700
     31 HN1         -2.6690     2.7830    -0.4370 hn         1 S23       0.383000
     32 HN1A        -3.4510     2.5240     0.9530 hn         1 S23       0.383000
     33 H2          -0.4570     3.3210     3.0570 hc         1 S23       0.024033
     34 H2A         -1.5970     4.5340     2.4620 hc         1 S23       0.024033
     35 H2B         -2.1910     3.0580     3.2270 hc         1 S23       0.024033
     36 H3          -1.9750     0.5980    -0.8020 hc         1 S23       0.042700
     37 H3A         -0.2510     0.9050    -0.8570 hc         1 S23       0.042700
     38 H4          -1.1380    -1.6420     0.5030 hc         1 S23       0.076700
     39 H6          -1.2400    -1.3430    -2.5260 hc         1 S23       0.051200
     40 H6A         -1.3490    -2.8510    -1.6450 hc         1 S23       0.051200
     41 H8          -3.2770    -0.5590    -3.3110 ha         1 S23       0.117000
     42 H10         -5.7170    -0.2940    -3.1250 ha         1 S23       0.092500
     43 H12         -6.9170    -1.1900    -1.1500 ha         1 S23       0.085000
     44 H11         -5.6410    -2.3470     0.6310 ha         1 S23       0.092500
     45 H9          -3.2080    -2.6030     0.4430 ha         1 S23       0.117000
     46 HN2          1.0810    -0.2970     1.0350 hn         1 S23       0.375500
     47 H13          3.2860    -1.4520    -0.5720 h1         1 S23       0.045700
     48 H15          3.2420     0.4630     1.7950 hc         1 S23       0.063200
     49 H15A         4.6940    -0.1410     1.0150 hc         1 S23       0.063200
     50 H17          5.3330     0.5940    -1.2240 ha         1 S23       0.128500
     51 H19          5.1600     2.3220    -2.9680 ha         1 S23       0.088000
     52 H21          3.2770     3.9310    -2.9430 ha         1 S23       0.080000
     53 H20          1.5730     3.7910    -1.1500 ha         1 S23       0.088000
     54 H18          1.7490     2.0500     0.5920 ha         1 S23       0.128500
@<TRIPOS>BOND
     1     1     2 1   
     2     2     3 1   
     3     2     4 1   
     4     2     7 1   
     5     4     5 1   
     6     4     6 1   
     7     4    30 1   
     8     5    31 1   
     9     5    32 1   
    10     6    33 1   
    11     6    34 1   
    12     6    35 1   
    13     7     8 1   
    14     7    36 1   
    15     7    37 1   
    16     8     9 1   
    17     8    16 1   
    18     8    38 1   
    19     9    10 1   
    20     9    39 1   
    21     9    40 1   
    22    10    11 ar  
    23    10    15 ar  
    24    11    12 ar  
    25    11    41 1   
    26    12    13 ar  
    27    12    42 1   
    28    13    14 ar  
    29    13    43 1   
    30    14    15 ar  
    31    14    44 1   
    32    15    45 1   
    33    16    17 2   
    34    16    18 1   
    35    18    19 1   
    36    18    46 1   
    37    19    20 1   
    38    19    23 1   
    39    19    47 1   
    40    20    21 1   
    41    20    22 1   
    42    23    24 1   
    43    23    48 1   
    44    23    49 1   
    45    24    25 ar  
    46    24    29 ar  
    47    25    26 ar  
    48    25    50 1   
    49    26    27 ar  
    50    26    51 1   
    51    27    28 ar  
    52    27    52 1   
    53    28    29 ar  
    54    28    53 1   
    55    29    54 1   
@<TRIPOS>SUBSTRUCTURE
     1 S23         1 TEMP              0 ****  ****    0 ROOT
