@<TRIPOS>MOLECULE
S23
   54    55     1     0     0
SMALL
No Charge or Current Charge


@<TRIPOS>ATOM
      1 O2          -2.7280     1.6910     1.8900 o          1 S23      -0.797000
      2 P           -1.4520     1.6120     1.1100 p5         1 S23       1.346000
      3 O1          -0.3370     0.9980     1.8930 o          1 S23      -0.797000
      4 C1          -0.9760     3.3550     0.4520 c3         1 S23      -0.192500
      5 N1          -1.8940     4.1700    -0.4520 n8         1 S23      -1.003200
      6 C2          -0.5100     4.2500     1.6250 c3         1 S23      -0.052100
      7 C3          -1.7560     0.6360    -0.4310 c3         1 S23      -0.436400
      8 C4          -1.0620    -0.7670    -0.5140 c3         1 S23      -0.097700
      9 C6          -1.6580    -1.6550    -1.6400 c3         1 S23      -0.022100
     10 C7          -3.1150    -2.0460    -1.4070 ca         1 S23      -0.046300
     11 C8          -4.1430    -1.4670    -2.1790 ca         1 S23      -0.100000
     12 C10         -5.4830    -1.8310    -1.9640 ca         1 S23      -0.118500
     13 C12         -5.8060    -2.7790    -0.9790 ca         1 S23      -0.139000
     14 C11         -4.7870    -3.3630    -0.2090 ca         1 S23      -0.118500
     15 C9          -3.4460    -2.9980    -0.4220 ca         1 S23      -0.100000
     16 C5           0.4820    -0.6800    -0.6860 c          1 S23       0.599100
     17 O3           1.0090    -0.2050    -1.6850 o          1 S23      -0.696100
     18 N2           1.2180    -1.2340     0.3390 ns         1 S23      -0.467900
     19 C13          2.6920    -1.4140     0.3640 c3         1 S23      -0.017300
     20 C14          3.0480    -2.7680     1.0560 c          1 S23       0.717000
     21 O4           2.4400    -3.0810     2.0720 o          1 S23      -0.735000
     22 O5           3.8480    -3.5090     0.5020 o          1 S23      -0.735000
     23 C15          3.4270    -0.2380     1.0570 c3         1 S23      -0.044100
     24 C16          3.4190     1.0680     0.2660 ca         1 S23      -0.031300
     25 C17          4.0970     1.1540    -0.9670 ca         1 S23      -0.110500
     26 C19          4.1240     2.3640    -1.6810 ca         1 S23      -0.129000
     27 C21          3.4790     3.5000    -1.1640 ca         1 S23      -0.150000
     28 C20          2.8090     3.4240     0.0670 ca         1 S23      -0.129000
     29 C18          2.7780     2.2120     0.7800 ca         1 S23      -0.110500
     30 H1          -0.0840     3.1240    -0.1460 h1         1 S23       0.045700
     31 HN1         -2.1500     3.6190    -1.2830 hn         1 S23       0.383000
     32 HN1A        -2.7980     4.3260     0.0170 hn         1 S23       0.383000
     33 H2           0.2800     3.7560     2.2020 hc         1 S23       0.024033
     34 H2A         -0.1080     5.2030     1.2580 hc         1 S23       0.024033
     35 H2B         -1.3420     4.4680     2.3060 hc         1 S23       0.024033
     36 H3          -2.8440     0.5230    -0.4830 hc         1 S23       0.042700
     37 H3A         -1.4560     1.2500    -1.2860 hc         1 S23       0.042700
     38 H4          -1.2580    -1.2790     0.4370 hc         1 S23       0.076700
     39 H6          -1.5480    -1.1380    -2.6010 hc         1 S23       0.051200
     40 H6A         -1.0560    -2.5690    -1.7230 hc         1 S23       0.051200
     41 H8          -3.9030    -0.7300    -2.9420 ha         1 S23       0.117000
     42 H10         -6.2720    -1.3790    -2.5620 ha         1 S23       0.092500
     43 H12         -6.8430    -3.0610    -0.8130 ha         1 S23       0.085000
     44 H11         -5.0350    -4.0980     0.5540 ha         1 S23       0.092500
     45 H9          -2.6630    -3.4570     0.1770 ha         1 S23       0.117000
     46 HN2          0.6930    -1.5750     1.1360 hn         1 S23       0.375500
     47 H13          3.0480    -1.4890    -0.6720 h1         1 S23       0.045700
     48 H15          3.0000    -0.0900     2.0560 hc         1 S23       0.063200
     49 H15A         4.4700    -0.5340     1.2220 hc         1 S23       0.063200
     50 H17          4.6060     0.2810    -1.3700 ha         1 S23       0.128500
     51 H19          4.6470     2.4220    -2.6330 ha         1 S23       0.088000
     52 H21          3.5020     4.4370    -1.7150 ha         1 S23       0.080000
     53 H20          2.3140     4.3040     0.4700 ha         1 S23       0.088000
     54 H18          2.2590     2.1640     1.7350 ha         1 S23       0.128500
@<TRIPOS>BOND
     1     1     2 1   
     2     2     3 1   
     3     2     4 1   
     4     2     7 1   
     5     4     5 1   
     6     4     6 1   
     7     4    30 1   
     8     5    31 1   
     9     5    32 1   
    10     6    33 1   
    11     6    34 1   
    12     6    35 1   
    13     7     8 1   
    14     7    36 1   
    15     7    37 1   
    16     8     9 1   
    17     8    16 1   
    18     8    38 1   
    19     9    10 1   
    20     9    39 1   
    21     9    40 1   
    22    10    11 ar  
    23    10    15 ar  
    24    11    12 ar  
    25    11    41 1   
    26    12    13 ar  
    27    12    42 1   
    28    13    14 ar  
    29    13    43 1   
    30    14    15 ar  
    31    14    44 1   
    32    15    45 1   
    33    16    17 2   
    34    16    18 1   
    35    18    19 1   
    36    18    46 1   
    37    19    20 1   
    38    19    23 1   
    39    19    47 1   
    40    20    21 1   
    41    20    22 1   
    42    23    24 1   
    43    23    48 1   
    44    23    49 1   
    45    24    25 ar  
    46    24    29 ar  
    47    25    26 ar  
    48    25    50 1   
    49    26    27 ar  
    50    26    51 1   
    51    27    28 ar  
    52    27    52 1   
    53    28    29 ar  
    54    28    53 1   
    55    29    54 1   
@<TRIPOS>SUBSTRUCTURE
     1 S23         1 TEMP              0 ****  ****    0 ROOT
