@<TRIPOS>MOLECULE
S24
   17    17     1     0     0
SMALL
No Charge or Current Charge


@<TRIPOS>ATOM
      1 C2          -0.7980     1.4770    -0.1800 ca         1 S24      -0.030000
      2 C4          -2.6560    -0.0180     0.2880 ca         1 S24       0.145100
      3 C5          -1.8740    -1.1180    -0.0830 ca         1 S24      -0.260000
      4 C6          -0.5480    -0.9260    -0.5040 ca         1 S24       0.193100
      5 C7           2.5030     0.2710     0.4930 c          1 S24       0.877600
      6 O2           3.7230     0.3270     0.4990 o          1 S24      -0.636000
      7 O4           0.1930    -2.0130    -0.8700 oh         1 S24      -0.489100
      8 O1           1.8210     0.0010     1.4700 o          1 S24      -0.636000
      9 C1           0.0000     0.3790    -0.5510 ca         1 S24      -0.048000
     10 O3          -3.9380    -0.2090     0.6940 oh         1 S24      -0.553100
     11 C3          -2.1240     1.2770     0.2410 ca         1 S24      -0.257000
     12 H2          -0.3860     2.4830    -0.2180 ha         1 S24       0.117000
     13 H5          -2.3000    -2.1160    -0.0450 ha         1 S24       0.107000
     14 HO4         -0.3660    -2.8080    -0.7650 ho         1 S24       0.440000
     15 HO3         -4.3210     0.6680     0.9100 ho         1 S24       0.450000
     16 H3          -2.7300     2.1340     0.5260 ha         1 S24       0.094000
     17 S1           1.6930     0.6780    -1.0950 ss         1 S24      -0.514600
@<TRIPOS>BOND
     1     1     9 ar  
     2     1    11 ar  
     3     1    12 1   
     4     2     3 ar  
     5     2    10 1   
     6     2    11 ar  
     7     3     4 ar  
     8     3    13 1   
     9     4     7 1   
    10     4     9 ar  
    11     5     6 1   
    12     5     8 1   
    13     5    17 1   
    14     7    14 1   
    15     9    17 1   
    16    10    15 1   
    17    11    16 1   
@<TRIPOS>SUBSTRUCTURE
     1 S24         1 TEMP              0 ****  ****    0 ROOT
