@<TRIPOS>MOLECULE
S24
   17    17     1     0     0
SMALL
bcc


@<TRIPOS>ATOM
      1 C2          -0.8620     1.4920    -0.1650 ca         1 S24      -0.048000
      2 C4          -2.7010     0.0210     0.2620 ca         1 S24       0.145100
      3 C5          -1.8900    -1.0650    -0.0550 ca         1 S24      -0.278000
      4 C6          -0.5670    -0.8660    -0.4320 ca         1 S24       0.193100
      5 C7           2.6420     0.1410     0.5020 c          1 S24       1.088200
      6 O2           3.8420     0.2710     0.2710 o          1 S24      -0.741300
      7 O4           0.2300    -1.8970    -0.7560 oh         1 S24      -0.450100
      8 O1           2.0170    -0.2590     1.4730 o          1 S24      -0.741300
      9 C1          -0.0300     0.4270    -0.4870 ca         1 S24       0.078900
     10 O3          -3.9740    -0.2410     0.6150 oh         1 S24      -0.514100
     11 C3          -2.1870     1.3130     0.2040 ca         1 S24      -0.275000
     12 H2          -0.4590     2.4970    -0.2030 ha         1 S24       0.135000
     13 H5          -2.3010    -2.0680    -0.0070 ha         1 S24       0.125000
     14 HO4         -0.2580    -2.7260    -0.6900 ho         1 S24       0.401000
     15 HO3         -4.4370     0.5780     0.8220 ho         1 S24       0.411000
     16 H3          -2.8050     2.1700     0.4450 ha         1 S24       0.112000
     17 S1           1.6320     0.7000    -0.9880 ss         1 S24      -0.641500
@<TRIPOS>BOND
     1     1     9 ar  
     2     1    11 ar  
     3     1    12 1   
     4     2     3 ar  
     5     2    10 1   
     6     2    11 ar  
     7     3     4 ar  
     8     3    13 1   
     9     4     7 1   
    10     4     9 ar  
    11     5     6 1   
    12     5     8 1   
    13     5    17 1   
    14     7    14 1   
    15     9    17 1   
    16    10    15 1   
    17    11    16 1   
@<TRIPOS>SUBSTRUCTURE
     1 S24         1 TEMP              0 ****  ****    0 ROOT
