@<TRIPOS>MOLECULE
S25
   53    56     1     0     0
SMALL
abcg2


@<TRIPOS>ATOM
      1 C            8.0220     0.0850     0.1460 c6         1 S25       0.171300
      2 N            6.7240    -0.5360    -0.0820 nh         1 S25      -0.794400
      3 O            8.9370    -2.0410     0.8670 os         1 S25      -0.438000
      4 S           -0.6760    -0.0840    -0.1290 ss         1 S25      -0.109400
      5 C1           9.1420    -0.9300     0.0290 c6         1 S25       0.143600
      6 C2           7.7400    -2.6870     0.5110 c6         1 S25       0.143600
      7 C3           6.5340    -1.7770     0.6520 c6         1 S25       0.171300
      8 C4          -2.9920     1.4460     0.2450 ca         1 S25      -0.044000
      9 C5          -3.8220     0.4340    -0.2260 ca         1 S25      -0.028000
     10 C6          -5.1950     0.5290    -0.0480 ca         1 S25      -0.199600
     11 C7          -5.6980     1.6720     0.5620 ca         1 S25       0.352900
     12 N8          -4.9210     2.6500     1.0120 nb         1 S25      -0.667000
     13 C9          -3.6130     2.5300     0.8750 ca         1 S25       0.360900
     14 C10          0.8140     0.8240    -0.1460 cc         1 S25       0.730300
     15 C11         -1.5460     1.4040     0.1020 cc         1 S25      -0.201000
     16 C12         -0.6480     2.4260     0.1250 cd         1 S25       0.332900
     17 N13          0.6660     2.1030    -0.0080 nd         1 S25      -0.666000
     18 C14          5.7720     1.5690    -0.8510 ca         1 S25      -0.262000
     19 C15          4.6380     2.2970    -1.1270 ca         1 S25       0.397900
     20 N16          3.3880     1.8710    -0.9590 nb         1 S25      -0.695000
     21 C17          3.2600     0.6510    -0.4700 ca         1 S25       0.630900
     22 C18          4.3260    -0.1840    -0.1410 ca         1 S25      -0.295000
     23 C19          5.6390     0.2560    -0.3470 ca         1 S25       0.383000
     24 C21         -6.0650    -0.5710    -0.5700 c          1 S25       0.618700
     25 O22         -5.6990    -1.2630    -1.5090 o          1 S25      -0.593100
     26 N23         -7.2420    -0.7300     0.0530 ns         1 S25      -0.503900
     27 C24         -8.1970    -1.7530    -0.3150 c3         1 S25       0.097000
     28 C25         -9.6000    -1.3490     0.1120 c3         1 S25       0.135800
     29 N26        -10.5290    -2.4170    -0.2090 n8         1 S25      -0.995200
     30 H1           8.2130     0.8540    -0.5990 h1         1 S25       0.052450
     31 H2           8.0480     0.5660     1.1330 h1         1 S25       0.052450
     32 H3           9.2360    -1.2530    -1.0180 h1         1 S25       0.055700
     33 H4          10.0820    -0.4600     0.3190 h1         1 S25       0.055700
     34 H5           7.7970    -3.0570    -0.5220 h1         1 S25       0.055700
     35 H6           7.6140    -3.5470     1.1690 h1         1 S25       0.055700
     36 H7           6.3290    -1.5760     1.7120 h1         1 S25       0.052450
     37 H8           5.6820    -2.3230     0.2500 h1         1 S25       0.052450
     38 H9          -3.4110    -0.4310    -0.7340 ha         1 S25       0.145000
     39 H10         -6.7650     1.8230     0.6780 h4         1 S25       0.020100
     40 H11         -3.0140     3.3330     1.2920 h4         1 S25       0.025100
     41 H12         -0.9210     3.4670     0.2350 h4         1 S25       0.043100
     42 H13          6.7300     2.0280    -1.0350 ha         1 S25       0.123000
     43 H14          4.7450     3.3020    -1.5210 h4         1 S25       0.020100
     44 H15          4.1070    -1.1540     0.2820 ha         1 S25       0.117000
     45 H16          1.9270    -0.8590    -0.1520 hn         1 S25       0.508000
     46 H17         -7.3970    -0.2550     0.9290 hn         1 S25       0.311500
     47 H18         -8.1690    -1.8950    -1.3940 h1         1 S25       0.062200
     48 H19         -7.9280    -2.7100     0.1460 h1         1 S25       0.062200
     49 H20         -9.5910    -1.0740     1.1780 h1         1 S25       0.030700
     50 H21         -9.8930    -0.4520    -0.4380 h1         1 S25       0.030700
     51 H22        -10.3880    -3.1920     0.4260 hn         1 S25       0.398000
     52 H23        -11.4770    -2.1000    -0.0520 hn         1 S25       0.398000
     53 N20          1.9790     0.1390    -0.2800 nu         1 S25      -0.904800
@<TRIPOS>BOND
     1     1     2 1   
     2     1     5 1   
     3     1    30 1   
     4     1    31 1   
     5     2     7 1   
     6     2    23 1   
     7     3     5 1   
     8     3     6 1   
     9     4    14 1   
    10     4    15 1   
    11     5    32 1   
    12     5    33 1   
    13     6     7 1   
    14     6    34 1   
    15     6    35 1   
    16     7    36 1   
    17     7    37 1   
    18     8     9 ar  
    19     8    13 ar  
    20     8    15 1   
    21     9    10 ar  
    22     9    38 1   
    23    10    11 ar  
    24    10    24 1   
    25    11    12 ar  
    26    11    39 1   
    27    12    13 ar  
    28    13    40 1   
    29    14    17 2   
    30    14    53 1   
    31    15    16 2   
    32    16    17 1   
    33    16    41 1   
    34    18    19 ar  
    35    18    23 ar  
    36    18    42 1   
    37    19    20 ar  
    38    19    43 1   
    39    20    21 ar  
    40    21    22 ar  
    41    21    53 1   
    42    22    23 ar  
    43    22    44 1   
    44    24    25 2   
    45    24    26 1   
    46    26    27 1   
    47    26    46 1   
    48    27    28 1   
    49    27    47 1   
    50    27    48 1   
    51    28    29 1   
    52    28    49 1   
    53    28    50 1   
    54    29    51 1   
    55    29    52 1   
    56    45    53 1   
@<TRIPOS>SUBSTRUCTURE
     1 S25         1 TEMP              0 ****  ****    0 ROOT
