@<TRIPOS>MOLECULE
S25
   53    56     1     0     0
SMALL
No Charge or Current Charge


@<TRIPOS>ATOM
      1 C            7.8850     0.3870     0.6710 c6         1 S25       0.171300
      2 N            6.8490    -0.4160    -0.0610 nh         1 S25      -0.794400
      3 O            9.1960    -1.6690     1.0930 os         1 S25      -0.438000
      4 S           -0.6400    -0.4900    -0.2050 ss         1 S25      -0.109400
      5 C1           9.2850    -0.2960     0.6460 c6         1 S25       0.143600
      6 C2           8.3150    -2.4640     0.2660 c6         1 S25       0.143600
      7 C3           6.8710    -1.8790     0.2740 c6         1 S25       0.171300
      8 C4          -2.9100     1.1410     0.4110 ca         1 S25      -0.044000
      9 C5          -3.8040     0.1460    -0.0320 ca         1 S25      -0.028000
     10 C6          -5.1890     0.3040     0.1950 ca         1 S25      -0.199600
     11 C7          -5.6240     1.4620     0.8660 ca         1 S25       0.352900
     12 N8          -4.7830     2.4240     1.3020 nb         1 S25      -0.667000
     13 C9          -3.4580     2.2610     1.0780 ca         1 S25       0.360900
     14 C10          0.8290     0.4500    -0.2740 cc         1 S25       0.730300
     15 C11         -1.4630     0.9910     0.1860 cc         1 S25      -0.201000
     16 C12         -0.5940     2.0620     0.2490 cd         1 S25       0.332900
     17 N13          0.7320     1.7350     0.0000 nd         1 S25      -0.666000
     18 C14          5.7560     1.3490    -1.3330 ca         1 S25      -0.262000
     19 C15          4.5770     1.9350    -1.8020 ca         1 S25       0.397900
     20 N16          3.3560     1.4470    -1.5170 nb         1 S25      -0.695000
     21 C17          3.2900     0.3640    -0.7420 ca         1 S25       0.630900
     22 C18          4.4060    -0.3020    -0.2460 ca         1 S25      -0.295000
     23 C19          5.6740     0.2050    -0.5390 ca         1 S25       0.383000
     24 C21         -6.1580    -0.7450    -0.2740 c          1 S25       0.618700
     25 O22         -5.7850    -1.7530    -0.8580 o          1 S25      -0.593100
     26 N23         -7.4950    -0.5280    -0.0200 ns         1 S25      -0.503900
     27 C24         -8.5680    -1.4510    -0.4120 c3         1 S25       0.097000
     28 C25         -9.9610    -0.9710     0.0650 c3         1 S25       0.135800
     29 N26        -11.0490    -1.8950    -0.3290 n8         1 S25      -0.995200
     30 H1           7.9860     1.3910     0.2350 h1         1 S25       0.052450
     31 H2           7.5780     0.5220     1.7180 h1         1 S25       0.052450
     32 H3           9.6920    -0.2740    -0.3750 h1         1 S25       0.055700
     33 H4           9.9780     0.2520     1.3000 h1         1 S25       0.055700
     34 H5           8.7040    -2.4820    -0.7620 h1         1 S25       0.055700
     35 H6           8.3000    -3.4960     0.6420 h1         1 S25       0.055700
     36 H7           6.4290    -2.0430     1.2680 h1         1 S25       0.052450
     37 H8           6.2680    -2.4450    -0.4520 h1         1 S25       0.052450
     38 H9          -3.4310    -0.7340    -0.5510 ha         1 S25       0.145000
     39 H10         -6.6780     1.6410     1.0700 h4         1 S25       0.020100
     40 H11         -2.8200     3.0570     1.4580 h4         1 S25       0.025100
     41 H12         -0.8510     3.0910     0.4660 h4         1 S25       0.043100
     42 H13          6.7140     1.7750    -1.6070 ha         1 S25       0.123000
     43 H14          4.6110     2.8220    -2.4340 h4         1 S25       0.020100
     44 H15          4.2820    -1.1830     0.3710 ha         1 S25       0.117000
     45 H16          2.0220    -1.1220    -0.3190 hn         1 S25       0.508000
     46 H17         -7.7460     0.3250     0.4650 hn         1 S25       0.311500
     47 H18         -8.5700    -1.5450    -1.5060 h1         1 S25       0.062200
     48 H19         -8.3560    -2.4390     0.0170 h1         1 S25       0.062200
     49 H20         -9.9610    -0.8750     1.1590 h1         1 S25       0.030700
     50 H21        -10.1710     0.0170    -0.3680 h1         1 S25       0.030700
     51 H22        -10.9250    -2.7910     0.1590 hn         1 S25       0.398000
     52 H23        -11.9400    -1.5430     0.0450 hn         1 S25       0.398000
     53 N20          2.0380    -0.1270    -0.4980 nu         1 S25      -0.904800
@<TRIPOS>BOND
     1     1     2 1   
     2     1     5 1   
     3     1    30 1   
     4     1    31 1   
     5     2     7 1   
     6     2    23 1   
     7     3     5 1   
     8     3     6 1   
     9     4    14 1   
    10     4    15 1   
    11     5    32 1   
    12     5    33 1   
    13     6     7 1   
    14     6    34 1   
    15     6    35 1   
    16     7    36 1   
    17     7    37 1   
    18     8     9 ar  
    19     8    13 ar  
    20     8    15 1   
    21     9    10 ar  
    22     9    38 1   
    23    10    11 ar  
    24    10    24 1   
    25    11    12 ar  
    26    11    39 1   
    27    12    13 ar  
    28    13    40 1   
    29    14    17 2   
    30    14    53 1   
    31    15    16 2   
    32    16    17 1   
    33    16    41 1   
    34    18    19 ar  
    35    18    23 ar  
    36    18    42 1   
    37    19    20 ar  
    38    19    43 1   
    39    20    21 ar  
    40    21    22 ar  
    41    21    53 1   
    42    22    23 ar  
    43    22    44 1   
    44    24    25 2   
    45    24    26 1   
    46    26    27 1   
    47    26    46 1   
    48    27    28 1   
    49    27    47 1   
    50    27    48 1   
    51    28    29 1   
    52    28    49 1   
    53    28    50 1   
    54    29    51 1   
    55    29    52 1   
    56    45    53 1   
@<TRIPOS>SUBSTRUCTURE
     1 S25         1 TEMP              0 ****  ****    0 ROOT
