@<TRIPOS>MOLECULE
S26
   40    43     1     0     0
SMALL
No Charge or Current Charge


@<TRIPOS>ATOM
      1 C4          -5.2510     0.7370     0.5760 ca         1 S26       0.119000
      2 C14          2.8990    -1.1810     0.1760 ce         1 S26      -0.246400
      3 C5          -4.5210     1.7820     1.1770 ca         1 S26      -0.100000
      4 C6          -3.1140     1.7170     1.2400 ca         1 S26      -0.056000
      5 C8          -0.7760    -0.7140     0.1110 cc         1 S26       0.458800
      6 C13          2.4690    -2.3910    -0.2430 cf         1 S26       0.113900
      7 C23          4.2580    -0.6690     0.5190 c          1 S26       0.630300
      8 O22          3.2450    -3.4750    -0.4650 oh         1 S26      -0.461100
      9 C12          0.9970    -2.3930    -0.3850 c          1 S26       0.522200
     10 O21          0.3160    -3.3510    -0.7250 o          1 S26      -0.505000
     11 C15          1.7010    -0.2240     0.2950 c5         1 S26       0.260200
     12 C16          1.7530     0.9570    -0.6500 cc         1 S26      -0.231300
     13 C20          1.6860     2.2730    -0.2640 cd         1 S26      -0.079000
     14 C19          1.7720     3.1800    -1.3530 cd         1 S26      -0.140000
     15 C18          1.9060     2.5630    -2.5720 cc         1 S26      -0.229000
     16 S17          1.9300     0.8100    -2.3950 ss         1 S26       0.207000
     17 N11          0.5540    -1.1230    -0.0200 n          1 S26      -0.300300
     18 S9          -2.1450    -1.6960    -0.4930 ss         1 S26       0.115800
     19 C2          -3.1750    -0.4120     0.1130 ca         1 S26      -0.212000
     20 N7          -1.0710     0.4500     0.7120 nd         1 S26      -0.582100
     21 C1          -2.4500     0.6040     0.6990 ca         1 S26       0.120400
     22 Cl          -7.0060     0.8220     0.5000 cl         1 S26      -0.197000
     23 C3          -4.5780    -0.3750     0.0360 ca         1 S26      -0.058000
     24 H1          -5.0450     2.6390     1.5930 ha         1 S26       0.133000
     25 H2          -2.5450     2.5200     1.7020 ha         1 S26       0.135000
     26 H6           2.6530    -4.2110    -0.7410 ho         1 S26       0.496000
     27 H7           1.6120     0.1410     1.3290 h1         1 S26       0.111700
     28 H8           1.5790     2.5910     0.7700 ha         1 S26       0.142000
     29 H9           1.7360     4.2590    -1.2330 ha         1 S26       0.136000
     30 H10          1.9930     3.0020    -3.5580 h4         1 S26       0.151000
     31 H11         -5.1350    -1.1850    -0.4290 ha         1 S26       0.140000
     32 O1           4.2250     0.6160     0.9930 os         1 S26      -0.443100
     33 C9           5.4670     1.2500     1.3340 c3         1 S26       0.170600
     34 C10          5.1360     2.6800     1.7880 c3         1 S26      -0.098100
     35 O2           5.2830    -1.3260     0.4030 o          1 S26      -0.471000
     36 H3           5.9730     0.7120     2.1470 h1         1 S26       0.049700
     37 H4           6.1390     1.2880     0.4660 h1         1 S26       0.049700
     38 H5           4.6390     3.2340     0.9830 hc         1 S26       0.048033
     39 H12          4.4760     2.6650     2.6630 hc         1 S26       0.048033
     40 H13          6.0550     3.2150     2.0580 hc         1 S26       0.048033
@<TRIPOS>BOND
     1     1     3 ar  
     2     1    22 1   
     3     1    23 ar  
     4     2     6 2   
     5     2     7 1   
     6     2    11 1   
     7     3     4 ar  
     8     3    24 1   
     9     4    21 ar  
    10     4    25 1   
    11     5    17 1   
    12     5    18 1   
    13     5    20 2   
    14     6     8 1   
    15     6     9 1   
    16     7    32 1   
    17     7    35 2   
    18     8    26 1   
    19     9    10 2   
    20     9    17 1   
    21    11    12 1   
    22    11    17 1   
    23    11    27 1   
    24    12    13 2   
    25    12    16 1   
    26    13    14 1   
    27    13    28 1   
    28    14    15 2   
    29    14    29 1   
    30    15    16 1   
    31    15    30 1   
    32    18    19 1   
    33    19    21 ar  
    34    19    23 ar  
    35    20    21 1   
    36    23    31 1   
    37    32    33 1   
    38    33    34 1   
    39    33    36 1   
    40    33    37 1   
    41    34    38 1   
    42    34    39 1   
    43    34    40 1   
@<TRIPOS>SUBSTRUCTURE
     1 S26         1 TEMP              0 ****  ****    0 ROOT
