@<TRIPOS>MOLECULE
S26
   40    43     1     0     0
SMALL
abcg2


@<TRIPOS>ATOM
      1 C4          -5.2250     0.6210     0.5680 ca         1 S26       0.119000
      2 C14          2.8450    -1.0450     0.2220 ce         1 S26      -0.246400
      3 C5          -4.5510     1.7120     1.1200 ca         1 S26      -0.100000
      4 C6          -3.1720     1.7150     1.1810 ca         1 S26      -0.056000
      5 C8          -0.7620    -0.6350     0.1590 cc         1 S26       0.458800
      6 C13          2.4440    -2.2480    -0.2180 cf         1 S26       0.113900
      7 C23          4.2240    -0.6460     0.5070 c          1 S26       0.630300
      8 O22          3.1550    -3.3140    -0.4950 oh         1 S26      -0.461100
      9 C12          0.9650    -2.2510    -0.3510 c          1 S26       0.522200
     10 O21          0.2710    -3.1740    -0.7100 o          1 S26      -0.505000
     11 C15          1.6630    -0.1200     0.3660 c5         1 S26       0.260200
     12 C16          1.7360     1.0560    -0.5550 cc         1 S26      -0.231300
     13 C20          1.4430     2.3550    -0.2850 cd         1 S26      -0.079000
     14 C19          1.6230     3.2050    -1.4090 cd         1 S26      -0.140000
     15 C18          2.0460     2.5270    -2.5110 cc         1 S26      -0.229000
     16 S17          2.2430     0.8560    -2.1910 ss         1 S26       0.207000
     17 N11          0.5480    -1.0120     0.0310 n          1 S26      -0.300300
     18 S9          -2.0560    -1.6800    -0.3960 ss         1 S26       0.115800
     19 C2          -3.1700    -0.4600     0.1340 ca         1 S26      -0.212000
     20 N7          -1.1010     0.4850     0.6850 nd         1 S26      -0.582100
     21 C1          -2.4660     0.6210     0.6850 ca         1 S26       0.120400
     22 CL          -6.9560     0.6500     0.5070 cl         1 S26      -0.197000
     23 C3          -4.5560    -0.4810     0.0680 ca         1 S26      -0.058000
     24 H1          -5.1110     2.5550     1.5010 ha         1 S26       0.133000
     25 H2          -2.6430     2.5560     1.6080 ha         1 S26       0.135000
     26 H6           2.5830    -4.0410    -0.7830 ho         1 S26       0.496000
     27 H7           1.5450     0.2320     1.3930 h1         1 S26       0.111700
     28 H8           1.1010     2.6910     0.6840 ha         1 S26       0.142000
     29 H9           1.4420     4.2700    -1.3970 ha         1 S26       0.136000
     30 H10          2.2580     2.9200    -3.4940 h4         1 S26       0.151000
     31 H11         -5.0910    -1.3200    -0.3570 ha         1 S26       0.140000
     32 O1           4.2700     0.5750     1.0050 os         1 S26      -0.443100
     33 C9           5.5530     1.1440     1.3160 c3         1 S26       0.170600
     34 C10          5.3190     2.5640     1.7680 c3         1 S26      -0.098100
     35 O2           5.1850    -1.3520     0.3140 o          1 S26      -0.471000
     36 H3           6.0310     0.5530     2.1000 h1         1 S26       0.049700
     37 H4           6.1910     1.1120     0.4310 h1         1 S26       0.049700
     38 H5           4.8560     3.1600     0.9820 hc         1 S26       0.048033
     39 H12          4.6860     2.6030     2.6540 hc         1 S26       0.048033
     40 H13          6.2750     3.0220     2.0190 hc         1 S26       0.048033
@<TRIPOS>BOND
     1     1     3 ar  
     2     1    22 1   
     3     1    23 ar  
     4     2     6 2   
     5     2     7 1   
     6     2    11 1   
     7     3     4 ar  
     8     3    24 1   
     9     4    21 ar  
    10     4    25 1   
    11     5    17 1   
    12     5    18 1   
    13     5    20 2   
    14     6     8 1   
    15     6     9 1   
    16     7    32 1   
    17     7    35 2   
    18     8    26 1   
    19     9    10 2   
    20     9    17 1   
    21    11    12 1   
    22    11    17 1   
    23    11    27 1   
    24    12    13 2   
    25    12    16 1   
    26    13    14 1   
    27    13    28 1   
    28    14    15 2   
    29    14    29 1   
    30    15    16 1   
    31    15    30 1   
    32    18    19 1   
    33    19    21 ar  
    34    19    23 ar  
    35    20    21 1   
    36    23    31 1   
    37    32    33 1   
    38    33    34 1   
    39    33    36 1   
    40    33    37 1   
    41    34    38 1   
    42    34    39 1   
    43    34    40 1   
@<TRIPOS>SUBSTRUCTURE
     1 S26         1 TEMP              0 ****  ****    0 ROOT
