@<TRIPOS>MOLECULE
S27
   53    54     1     0     0
SMALL
No Charge or Current Charge


@<TRIPOS>ATOM
      1 C1         -22.1970    30.4430     1.9210 ca         1 S27      -0.356500
      2 C2         -23.3300    30.1710     2.7230 ca         1 S27      -0.042500
      3 C3         -23.1860    29.9670     4.1060 ca         1 S27      -0.135500
      4 C4         -21.9180    30.0370     4.7040 ca         1 S27      -0.073000
      5 C5         -20.7910    30.3160     3.9170 ca         1 S27      -0.135500
      6 C6         -20.9270    30.5210     2.5330 ca         1 S27      -0.042500
      7 P7         -22.2920    30.7230     0.1090 py         1 S27       1.247800
      8 O8         -21.3350    31.7560    -0.3680 o          1 S27      -0.580000
      9 C9         -24.0250    31.1790    -0.1930 c3         1 S27      -0.498100
     10 N10        -22.2280    29.2150    -0.6110 n3         1 S27      -0.870700
     11 C11        -22.7590    28.0650     0.1740 c3         1 S27       0.276100
     12 C12        -23.3940    26.9530    -0.6560 ca         1 S27      -0.113300
     13 C13        -24.3850    27.2560    -1.6110 ca         1 S27      -0.110000
     14 C14        -24.9740    26.2330    -2.3740 ca         1 S27      -0.105000
     15 C15        -24.5810    24.8980    -2.1820 ca         1 S27      -0.111000
     16 C16        -23.6020    24.5860    -1.2230 ca         1 S27      -0.105000
     17 C17        -23.0130    25.6090    -0.4600 ca         1 S27      -0.110000
     18 C18        -20.9690    28.9450    -1.4030 c3         1 S27       0.176500
     19 C          -19.6560    28.7300    -0.5640 c          1 S27       0.578100
     20 NA         -18.7590    29.7980    -0.5750 ns         1 S27      -0.383400
     21 OA         -17.4030    29.6350    -0.0940 oh         1 S27      -0.413100
     22 OB         -19.4280    27.7040     0.0710 o          1 S27      -0.581100
     23 C7         -21.1080    27.8520    -2.5030 c3         1 S27      -0.076400
     24 C8         -19.9610    27.7860    -3.5540 c3         1 S27      -0.066700
     25 C10        -19.8250    29.0810    -4.3920 c3         1 S27      -0.087100
     26 C23        -20.1440    26.5600    -4.4790 c3         1 S27      -0.087100
     27 H2         -24.3260    30.1130     2.2890 ha         1 S27       0.127500
     28 H3         -24.0620    29.7550     4.7160 ha         1 S27       0.120500
     29 H4         -21.8110    29.8790     5.7750 ha         1 S27       0.118000
     30 H5         -19.8070    30.3740     4.3790 ha         1 S27       0.120500
     31 H6         -20.0400    30.7380     1.9400 ha         1 S27       0.127500
     32 H91        -24.1140    31.5180    -1.2290 hc         1 S27       0.085367
     33 H92        -24.6880    30.3220    -0.0390 hc         1 S27       0.085367
     34 H93        -24.3070    31.9940     0.4800 hc         1 S27       0.085367
     35 H111       -21.9790    27.6490     0.8270 h1         1 S27       0.063200
     36 H112       -23.5620    28.4020     0.8390 h1         1 S27       0.063200
     37 H13        -24.6910    28.2880    -1.7680 ha         1 S27       0.117500
     38 H14        -25.7330    26.4750    -3.1140 ha         1 S27       0.115500
     39 H15        -25.0360    24.1050    -2.7730 ha         1 S27       0.114000
     40 H16        -23.2990    23.5520    -1.0720 ha         1 S27       0.115500
     41 H17        -22.2540    25.3570     0.2780 ha         1 S27       0.117500
     42 H18        -20.7840    29.8610    -1.9770 h1         1 S27       0.060700
     43 HNA        -18.9200    30.5860    -1.2020 hn         1 S27       0.340500
     44 HOA        -17.2750    30.4030     0.5100 ho         1 S27       0.434000
     45 H71        -21.1640    26.8730    -2.0170 hc         1 S27       0.064200
     46 H72        -22.0580    28.0020    -3.0310 hc         1 S27       0.064200
     47 H8         -19.0140    27.6380    -3.0200 hc         1 S27       0.055700
     48 H101       -19.0600    28.9590    -5.1690 hc         1 S27       0.034367
     49 H102       -20.7730    29.3300    -4.8840 hc         1 S27       0.034367
     50 H103       -19.5230    29.9320    -3.7710 hc         1 S27       0.034367
     51 H231       -19.3090    26.4780    -5.1860 hc         1 S27       0.034367
     52 H232       -20.1810    25.6330    -3.8940 hc         1 S27       0.034367
     53 H233       -21.0740    26.6400    -5.0540 hc         1 S27       0.034367
@<TRIPOS>BOND
     1     1     2 ar  
     2     1     6 ar  
     3     1     7 1   
     4     2     3 ar  
     5     2    27 1   
     6     3     4 ar  
     7     3    28 1   
     8     4     5 ar  
     9     4    29 1   
    10     5     6 ar  
    11     5    30 1   
    12     6    31 1   
    13     7     8 2   
    14     7     9 1   
    15     7    10 1   
    16     9    32 1   
    17     9    33 1   
    18     9    34 1   
    19    10    11 1   
    20    10    18 1   
    21    11    12 1   
    22    11    35 1   
    23    11    36 1   
    24    12    13 ar  
    25    12    17 ar  
    26    13    14 ar  
    27    13    37 1   
    28    14    15 ar  
    29    14    38 1   
    30    15    16 ar  
    31    15    39 1   
    32    16    17 ar  
    33    16    40 1   
    34    17    41 1   
    35    18    19 1   
    36    18    23 1   
    37    18    42 1   
    38    19    20 1   
    39    19    22 2   
    40    20    21 1   
    41    20    43 1   
    42    21    44 1   
    43    23    24 1   
    44    23    45 1   
    45    23    46 1   
    46    24    25 1   
    47    24    26 1   
    48    24    47 1   
    49    25    48 1   
    50    25    49 1   
    51    25    50 1   
    52    26    51 1   
    53    26    52 1   
    54    26    53 1   
@<TRIPOS>SUBSTRUCTURE
     1 S27         1 TEMP              0 ****  ****    0 ROOT
