@<TRIPOS>MOLECULE
S27
   53    54     1     0     0
SMALL
abcg2


@<TRIPOS>ATOM
      1 C1         -22.0270    30.6480     1.3640 ca         1 S27      -0.356500
      2 C2         -21.7120    29.9200     2.5150 ca         1 S27      -0.042500
      3 C3         -20.8240    30.4360     3.4500 ca         1 S27      -0.135500
      4 C4         -20.2330    31.6800     3.2360 ca         1 S27      -0.073000
      5 C5         -20.5440    32.4110     2.0950 ca         1 S27      -0.135500
      6 C6         -21.4450    31.8990     1.1650 ca         1 S27      -0.042500
      7 P7         -23.1040    29.9340     0.0920 py         1 S27       1.247800
      8 O8         -23.2570    30.8810    -1.0550 o          1 S27      -0.580000
      9 C9         -24.6600    29.5190     0.8960 c3         1 S27      -0.498100
     10 N10        -22.3950    28.4770    -0.3100 n3         1 S27      -0.870700
     11 C11        -23.0240    27.1720    -0.1350 c3         1 S27       0.276100
     12 C12        -23.9390    26.7210    -1.2580 ca         1 S27      -0.113300
     13 C13        -24.4040    27.5830    -2.2470 ca         1 S27      -0.110000
     14 C14        -25.2730    27.1260    -3.2340 ca         1 S27      -0.105000
     15 C15        -25.6880    25.8000    -3.2460 ca         1 S27      -0.111000
     16 C16        -25.2250    24.9290    -2.2620 ca         1 S27      -0.105000
     17 C17        -24.3580    25.3890    -1.2780 ca         1 S27      -0.110000
     18 C18        -21.0340    28.5510    -0.8630 c3         1 S27       0.176500
     19 C          -20.0170    28.1420     0.2120 c          1 S27       0.578100
     20 NA         -19.1650    29.1300     0.5490 ns         1 S27      -0.383400
     21 OA         -18.2140    28.9470     1.5380 oh         1 S27      -0.413100
     22 OB         -19.9850    27.0220     0.7100 o          1 S27      -0.581100
     23 C7         -20.8410    27.7170    -2.1310 c3         1 S27      -0.076400
     24 C8         -19.4530    27.8520    -2.7710 c3         1 S27      -0.066700
     25 C10        -19.1750    29.2740    -3.2630 c3         1 S27      -0.087100
     26 C23        -19.3180    26.8490    -3.9180 c3         1 S27      -0.087100
     27 H2         -22.1420    28.9390     2.6730 ha         1 S27       0.127500
     28 H3         -20.5860    29.8680     4.3410 ha         1 S27       0.120500
     29 H4         -19.5300    32.0760     3.9580 ha         1 S27       0.118000
     30 H5         -20.0850    33.3770     1.9250 ha         1 S27       0.120500
     31 H6         -21.6860    32.4590     0.2710 ha         1 S27       0.127500
     32 H91        -25.3140    28.9910     0.2020 hc         1 S27       0.085367
     33 H92        -24.5120    28.9190     1.7930 hc         1 S27       0.085367
     34 H93        -25.1260    30.4650     1.1740 hc         1 S27       0.085367
     35 H111       -22.2350    26.4370     0.0100 h1         1 S27       0.063200
     36 H112       -23.5910    27.1690     0.7970 h1         1 S27       0.063200
     37 H13        -24.0810    28.6150    -2.2550 ha         1 S27       0.117500
     38 H14        -25.6240    27.8120    -3.9960 ha         1 S27       0.115500
     39 H15        -26.3630    25.4450    -4.0150 ha         1 S27       0.114000
     40 H16        -25.5380    23.8920    -2.2630 ha         1 S27       0.115500
     41 H17        -23.9980    24.7060    -0.5160 ha         1 S27       0.117500
     42 H18        -20.8630    29.5950    -1.1230 h1         1 S27       0.060700
     43 HNA        -19.2720    30.0850     0.2420 hn         1 S27       0.340500
     44 HOA        -18.6870    29.0310     2.3840 ho         1 S27       0.434000
     45 H71        -21.0240    26.6660    -1.8980 hc         1 S27       0.064200
     46 H72        -21.6020    28.0240    -2.8520 hc         1 S27       0.064200
     47 H8         -18.6990    27.5970    -2.0180 hc         1 S27       0.055700
     48 H101       -18.1980    29.3260    -3.7480 hc         1 S27       0.034367
     49 H102       -19.9300    29.5790    -3.9940 hc         1 S27       0.034367
     50 H103       -19.1790    30.0040    -2.4530 hc         1 S27       0.034367
     51 H231       -18.3260    26.9070    -4.3720 hc         1 S27       0.034367
     52 H232       -19.4740    25.8270    -3.5680 hc         1 S27       0.034367
     53 H233       -20.0570    27.0550    -4.6980 hc         1 S27       0.034367
@<TRIPOS>BOND
     1     1     2 ar  
     2     1     6 ar  
     3     1     7 1   
     4     2     3 ar  
     5     2    27 1   
     6     3     4 ar  
     7     3    28 1   
     8     4     5 ar  
     9     4    29 1   
    10     5     6 ar  
    11     5    30 1   
    12     6    31 1   
    13     7     8 2   
    14     7     9 1   
    15     7    10 1   
    16     9    32 1   
    17     9    33 1   
    18     9    34 1   
    19    10    11 1   
    20    10    18 1   
    21    11    12 1   
    22    11    35 1   
    23    11    36 1   
    24    12    13 ar  
    25    12    17 ar  
    26    13    14 ar  
    27    13    37 1   
    28    14    15 ar  
    29    14    38 1   
    30    15    16 ar  
    31    15    39 1   
    32    16    17 ar  
    33    16    40 1   
    34    17    41 1   
    35    18    19 1   
    36    18    23 1   
    37    18    42 1   
    38    19    20 1   
    39    19    22 2   
    40    20    21 1   
    41    20    43 1   
    42    21    44 1   
    43    23    24 1   
    44    23    45 1   
    45    23    46 1   
    46    24    25 1   
    47    24    26 1   
    48    24    47 1   
    49    25    48 1   
    50    25    49 1   
    51    25    50 1   
    52    26    51 1   
    53    26    52 1   
    54    26    53 1   
@<TRIPOS>SUBSTRUCTURE
     1 S27         1 TEMP              0 ****  ****    0 ROOT
