@<TRIPOS>MOLECULE
S28
   59    61     1     0     0
SMALL
No Charge or Current Charge


@<TRIPOS>ATOM
      1 C7          -5.6850     0.0580     0.7500 c3         1 S28      -0.246100
      2 S8          -4.9200     1.2380    -0.3790 s6         1 S28       1.187100
      3 C6          -7.1970    -0.0670     0.5990 ca         1 S28      -0.086300
      4 C1          -7.7450    -0.9890    -0.3130 ca         1 S28      -0.084500
      5 C2          -9.1390    -1.1060    -0.4510 ca         1 S28      -0.109500
      6 C3          -9.9930    -0.3020     0.3230 ca         1 S28      -0.099000
      7 C4          -9.4510     0.6180     1.2360 ca         1 S28      -0.109500
      8 C5          -8.0570     0.7350     1.3740 ca         1 S28      -0.084500
      9 O13         -4.9600     0.7410    -1.7550 o          1 S28      -0.535500
     10 O14         -5.3920     2.5840    -0.0520 o          1 S28      -0.535500
     11 N9          -3.3230     1.2060     0.0830 n7         1 S28      -0.908300
     12 C10         -2.5280    -0.0560    -0.0940 c3         1 S28       0.130800
     13 C11         -0.9810     0.1060     0.0850 c          1 S28       0.609100
     14 O15         -0.4450     1.2120     0.0910 o          1 S28      -0.602100
     15 N12         -0.1990    -1.0610     0.2340 n          1 S28      -0.394800
     16 C16          1.2800    -1.0170     0.4070 c5         1 S28       0.028700
     17 C17          2.0680    -0.7080    -0.9080 c          1 S28       0.592100
     18 O18          1.6350    -0.6940    -2.0550 o          1 S28      -0.598100
     19 C21          1.5670    -2.4780     0.8720 c5         1 S28      -0.082400
     20 C22          0.5290    -3.2930     0.0590 c5         1 S28      -0.093400
     21 C23         -0.7520    -2.4340     0.2200 c5         1 S28       0.107000
     22 N19          3.3750    -0.4060    -0.5990 ns         1 S28      -0.501900
     23 C20          4.3920    -0.0640    -1.5880 c3         1 S28       0.152300
     24 C24          5.7490     0.1240    -0.9290 ca         1 S28      -0.105300
     25 C31          6.1580     1.3960    -0.4900 ca         1 S28      -0.104000
     26 C29          7.4100     1.5710     0.1250 ca         1 S28      -0.082000
     27 C28          8.2880     0.4740     0.3050 ca         1 S28      -0.135900
     28 C26          9.6140     0.6380     0.9900 ce         1 S28       0.658800
     29 N30         10.2650    -0.3300     1.4910 n2         1 S28      -0.826100
     30 N32         10.1920     1.8590     0.9800 nv         1 S28      -1.076200
     31 C27          7.8540    -0.8050    -0.1160 ca         1 S28      -0.082000
     32 C25          6.6020    -0.9760    -0.7320 ca         1 S28      -0.104000
     33 H7          -5.4220     0.3970     1.7580 h1         1 S28       0.099700
     34 H7A         -5.2020    -0.9050     0.5610 h1         1 S28       0.099700
     35 H1          -7.0910    -1.6150    -0.9170 ha         1 S28       0.119000
     36 H2          -9.5570    -1.8190    -1.1580 ha         1 S28       0.115500
     37 H3         -11.0720    -0.3930     0.2160 ha         1 S28       0.113000
     38 H4         -10.1100     1.2410     1.8370 ha         1 S28       0.115500
     39 H5          -7.6450     1.4510     2.0830 ha         1 S28       0.119000
     40 HN9         -2.9480     1.9260    -0.5380 hn         1 S28       0.525000
     41 H10         -2.8610    -0.8130     0.6270 h1         1 S28       0.069700
     42 H10A        -2.6720    -0.4780    -1.0980 h1         1 S28       0.069700
     43 H16          1.5770    -0.2860     1.1710 h1         1 S28       0.079700
     44 H21          2.5980    -2.8000     0.6870 hc         1 S28       0.059700
     45 H21A         1.3860    -2.5850     1.9480 hc         1 S28       0.059700
     46 H22          0.8210    -3.3710    -0.9950 hc         1 S28       0.066200
     47 H22A         0.3970    -4.3130     0.4360 hc         1 S28       0.066200
     48 H23         -1.2630    -2.6530     1.1670 h1         1 S28       0.050200
     49 H23A        -1.4550    -2.6000    -0.6070 h1         1 S28       0.050200
     50 HN19         3.6450    -0.4360     0.3770 hn         1 S28       0.321500
     51 H20          4.4500    -0.8670    -2.3350 h1         1 S28       0.060200
     52 H20A         4.0950     0.8590    -2.1030 h1         1 S28       0.060200
     53 H31          5.5000     2.2540    -0.6200 ha         1 S28       0.121000
     54 H29          7.6840     2.5640     0.4710 ha         1 S28       0.130000
     55 HN30        11.0180     0.0610     2.0670 hn         1 S28       0.372400
     56 HN32         9.7940     2.5110     0.3140 hn         1 S28       0.462000
     57 HN3A        11.2030     1.8760     1.0420 hn         1 S28       0.462000
     58 H27          8.4940    -1.6740     0.0260 ha         1 S28       0.130000
     59 H25          6.2940    -1.9690    -1.0540 ha         1 S28       0.121000
@<TRIPOS>BOND
     1     1     2 1   
     2     1     3 1   
     3     1    33 1   
     4     1    34 1   
     5     2     9 2   
     6     2    10 2   
     7     2    11 1   
     8     3     4 ar  
     9     3     8 ar  
    10     4     5 ar  
    11     4    35 1   
    12     5     6 ar  
    13     5    36 1   
    14     6     7 ar  
    15     6    37 1   
    16     7     8 ar  
    17     7    38 1   
    18     8    39 1   
    19    11    12 1   
    20    11    40 1   
    21    12    13 1   
    22    12    41 1   
    23    12    42 1   
    24    13    14 2   
    25    13    15 1   
    26    15    16 1   
    27    15    21 1   
    28    16    17 1   
    29    16    19 1   
    30    16    43 1   
    31    17    18 2   
    32    17    22 1   
    33    19    20 1   
    34    19    44 1   
    35    19    45 1   
    36    20    21 1   
    37    20    46 1   
    38    20    47 1   
    39    21    48 1   
    40    21    49 1   
    41    22    23 1   
    42    22    50 1   
    43    23    24 1   
    44    23    51 1   
    45    23    52 1   
    46    24    25 ar  
    47    24    32 ar  
    48    25    26 ar  
    49    25    53 1   
    50    26    27 ar  
    51    26    54 1   
    52    27    28 1   
    53    27    31 ar  
    54    28    29 2   
    55    28    30 1   
    56    29    55 1   
    57    30    56 1   
    58    30    57 1   
    59    31    32 ar  
    60    31    58 1   
    61    32    59 1   
@<TRIPOS>SUBSTRUCTURE
     1 S28         1 TEMP              0 ****  ****    0 ROOT
