@<TRIPOS>MOLECULE
S28
   59    61     1     0     0
SMALL
bcc


@<TRIPOS>ATOM
      1 C7          -5.3140     0.1770     1.1090 c3         1 S28      -0.135300
      2 S8          -4.2340     0.8220    -0.1730 s6         1 S28       1.217900
      3 C6          -6.7340     0.5290     0.7920 ca         1 S28      -0.086300
      4 C1          -7.5190    -0.3210     0.0190 ca         1 S28      -0.102500
      5 C2          -8.8280     0.0210    -0.2890 ca         1 S28      -0.127500
      6 C3          -9.3610     1.2200     0.1670 ca         1 S28      -0.117000
      7 C4          -8.5810     2.0740     0.9350 ca         1 S28      -0.127500
      8 C5          -7.2710     1.7310     1.2430 ca         1 S28      -0.102500
      9 O13         -4.5820     0.1550    -1.4210 o          1 S28      -0.606300
     10 O14         -4.2620     2.2760    -0.1170 o          1 S28      -0.606300
     11 N9          -2.7410     0.3620     0.3450 n7         1 S28      -0.853100
     12 C10         -2.2080    -0.9290    -0.0310 c3         1 S28       0.130800
     13 C11         -0.7090    -0.9140     0.2190 c          1 S28       0.676100
     14 O15         -0.1120     0.1290     0.4490 o          1 S28      -0.602100
     15 N12         -0.0940    -2.0980     0.1530 n          1 S28      -0.461800
     16 C16          1.3420    -2.1840     0.3160 c5         1 S28       0.028700
     17 C17          2.0540    -1.4930    -0.8430 c          1 S28       0.659100
     18 O18          1.5690    -1.4350    -1.9620 o          1 S28      -0.598100
     19 C21          1.6020    -3.6980     0.3060 c5         1 S28      -0.082400
     20 C22          0.4760    -4.2530    -0.5600 c5         1 S28      -0.093400
     21 C23         -0.7140    -3.3730    -0.2000 c5         1 S28       0.107000
     22 N19          3.2650    -1.0100    -0.5430 ns         1 S28      -0.568900
     23 C20          4.1250    -0.3930    -1.5370 c3         1 S28       0.152300
     24 C24          5.3490     0.1700    -0.8720 ca         1 S28      -0.105300
     25 C31          5.3050     1.4150    -0.2550 ca         1 S28      -0.122000
     26 C29          6.4240     1.9310     0.3810 ca         1 S28      -0.100000
     27 C28          7.6130     1.2050     0.4200 ca         1 S28      -0.135900
     28 C26          8.8270     1.7290     1.1070 ce         1 S28       0.658800
     29 N30          9.6650     0.8950     1.5890 n2         1 S28      -0.826100
     30 N32          8.8980     3.0900     1.1990 nv         1 S28      -0.965800
     31 C27          7.6540    -0.0480    -0.1860 ca         1 S28      -0.100000
     32 C25          6.5360    -0.5560    -0.8290 ca         1 S28      -0.122000
     33 H7          -4.9750     0.6180     2.0470 h1         1 S28       0.099700
     34 H7A         -5.1540    -0.9020     1.1530 h1         1 S28       0.099700
     35 H1          -7.1120    -1.2600    -0.3350 ha         1 S28       0.137000
     36 H2          -9.4320    -0.6480    -0.8880 ha         1 S28       0.133500
     37 H3         -10.3820     1.4850    -0.0730 ha         1 S28       0.131000
     38 H4          -8.9910     3.0070     1.2970 ha         1 S28       0.133500
     39 H5          -6.6680     2.3980     1.8470 ha         1 S28       0.137000
     40 HN9         -2.0620     1.1170     0.3120 hn         1 S28       0.469800
     41 H10         -2.6800    -1.7220     0.5530 h1         1 S28       0.069700
     42 H10A        -2.3710    -1.1650    -1.0890 h1         1 S28       0.069700
     43 H16          1.6530    -1.7380     1.2640 h1         1 S28       0.079700
     44 H21          2.5960    -3.9460    -0.0630 hc         1 S28       0.059700
     45 H21A         1.5230    -4.0790     1.3260 hc         1 S28       0.059700
     46 H22          0.7160    -4.1480    -1.6190 hc         1 S28       0.066200
     47 H22A         0.2760    -5.3050    -0.3650 hc         1 S28       0.066200
     48 H23         -1.2640    -3.7800     0.6530 h1         1 S28       0.050200
     49 H23A        -1.4110    -3.2620    -1.0300 h1         1 S28       0.050200
     50 HN19         3.6040    -1.0830     0.4030 hn         1 S28       0.321500
     51 H20          4.4080    -1.1240    -2.2980 h1         1 S28       0.060200
     52 H20A         3.5770     0.4030    -2.0450 h1         1 S28       0.060200
     53 H31          4.3890     1.9930    -0.2700 ha         1 S28       0.139000
     54 H29          6.3540     2.8980     0.8620 ha         1 S28       0.148000
     55 HN30        10.4600     1.3720     2.0040 hn         1 S28       0.372400
     56 HN32         8.4570     3.6400     0.4810 hn         1 S28       0.406800
     57 HN3A         9.7590     3.4870     1.5380 hn         1 S28       0.406800
     58 H27          8.5710    -0.6210    -0.1640 ha         1 S28       0.148000
     59 H25          6.5910    -1.5260    -1.3080 ha         1 S28       0.139000
@<TRIPOS>BOND
     1     1     2 1   
     2     1     3 1   
     3     1    33 1   
     4     1    34 1   
     5     2     9 2   
     6     2    10 2   
     7     2    11 1   
     8     3     4 ar  
     9     3     8 ar  
    10     4     5 ar  
    11     4    35 1   
    12     5     6 ar  
    13     5    36 1   
    14     6     7 ar  
    15     6    37 1   
    16     7     8 ar  
    17     7    38 1   
    18     8    39 1   
    19    11    12 1   
    20    11    40 1   
    21    12    13 1   
    22    12    41 1   
    23    12    42 1   
    24    13    14 2   
    25    13    15 1   
    26    15    16 1   
    27    15    21 1   
    28    16    17 1   
    29    16    19 1   
    30    16    43 1   
    31    17    18 2   
    32    17    22 1   
    33    19    20 1   
    34    19    44 1   
    35    19    45 1   
    36    20    21 1   
    37    20    46 1   
    38    20    47 1   
    39    21    48 1   
    40    21    49 1   
    41    22    23 1   
    42    22    50 1   
    43    23    24 1   
    44    23    51 1   
    45    23    52 1   
    46    24    25 ar  
    47    24    32 ar  
    48    25    26 ar  
    49    25    53 1   
    50    26    27 ar  
    51    26    54 1   
    52    27    28 1   
    53    27    31 ar  
    54    28    29 2   
    55    28    30 1   
    56    29    55 1   
    57    30    56 1   
    58    30    57 1   
    59    31    32 ar  
    60    31    58 1   
    61    32    59 1   
@<TRIPOS>SUBSTRUCTURE
     1 S28         1 TEMP              0 ****  ****    0 ROOT
