@<TRIPOS>MOLECULE
S29
   62    64     1     0     0
SMALL
bcc


@<TRIPOS>ATOM
      1 C7          -5.3400     0.2270     0.9960 c3         1 S29      -0.168300
      2 S8          -4.0340     0.6400    -0.1760 s6         1 S29       1.237900
      3 C6          -6.6590     0.7040     0.4770 ca         1 S29      -0.078300
      4 C1          -7.4220    -0.1080    -0.3580 ca         1 S29      -0.103500
      5 C2          -8.6370     0.3440    -0.8550 ca         1 S29      -0.126500
      6 C3          -9.0960     1.6130    -0.5260 ca         1 S29      -0.117000
      7 C4          -8.3370     2.4280     0.3040 ca         1 S29      -0.126500
      8 C5          -7.1220     1.9770     0.7990 ca         1 S29      -0.103500
      9 O13         -4.2400    -0.1650    -1.3710 o          1 S29      -0.593800
     10 O14         -3.9940     2.0900    -0.2840 o          1 S29      -0.593800
     11 N9          -2.6120     0.1870     0.4860 n7         1 S29      -0.850100
     12 C10         -2.1280    -1.1800     0.5030 c3         1 S29       0.164500
     13 C33         -2.5120    -1.9470     1.7690 c3         1 S29      -0.124100
     14 C11         -0.6050    -1.1290     0.4040 c          1 S29       0.680100
     15 O15          0.0160    -0.1560     0.8080 o          1 S29      -0.595100
     16 N12          0.0130    -2.2230    -0.0620 n          1 S29      -0.463800
     17 C16          1.4600    -2.2750    -0.0640 c5         1 S29       0.027700
     18 C17          2.0330    -1.3020    -1.0900 c          1 S29       0.660100
     19 O18          1.4370    -1.0090    -2.1150 o          1 S29      -0.589100
     20 C21          1.7560    -3.7290    -0.4550 c5         1 S29      -0.083400
     21 C22          0.5740    -4.1070    -1.3400 c5         1 S29      -0.093400
     22 C23         -0.6010    -3.3970    -0.6770 c5         1 S29       0.109000
     23 N19          3.2600    -0.8510    -0.7990 ns         1 S29      -0.570900
     24 C20          4.0190    -0.0060    -1.7020 c3         1 S29       0.152300
     25 C24          5.2800     0.4520    -1.0260 ca         1 S29      -0.103300
     26 C31          5.2730     1.5680    -0.1960 ca         1 S29      -0.122500
     27 C29          6.4240     1.9670     0.4670 ca         1 S29      -0.100500
     28 C28          7.6120     1.2550     0.3130 ca         1 S29      -0.135900
     29 C26          8.8670     1.6570     1.0080 ce         1 S29       0.658800
     30 N30          9.9860     1.3160     0.4950 n2         1 S29      -0.826100
     31 N32          8.6970     2.4120     2.1330 nv         1 S29      -0.965800
     32 C27          7.6220     0.1450    -0.5280 ca         1 S29      -0.100500
     33 C25          6.4690    -0.2540    -1.1830 ca         1 S29      -0.122500
     34 H7          -5.0700     0.7000     1.9420 h1         1 S29       0.090700
     35 H7A         -5.3180    -0.8550     1.1310 h1         1 S29       0.090700
     36 H1          -7.0740    -1.1010    -0.6120 ha         1 S29       0.136500
     37 H2          -9.2250    -0.2960    -1.5000 ha         1 S29       0.133500
     38 H3         -10.0440     1.9630    -0.9130 ha         1 S29       0.132000
     39 H4          -8.6900     3.4170     0.5650 ha         1 S29       0.133500
     40 H5          -6.5360     2.6140     1.4500 ha         1 S29       0.136500
     41 HN9         -2.2750     0.7960     1.2220 hn         1 S29       0.454800
     42 H10         -2.5440    -1.6860    -0.3680 h1         1 S29       0.094700
     43 H33         -2.1120    -1.4540     2.6560 hc         1 S29       0.048700
     44 H33A        -3.5940    -2.0100     1.8710 hc         1 S29       0.048700
     45 H33B        -2.1280    -2.9660     1.7450 hc         1 S29       0.048700
     46 H16          1.8560    -2.0440     0.9280 h1         1 S29       0.075700
     47 H21          2.7230    -3.8450    -0.9440 hc         1 S29       0.057200
     48 H21A         1.7670    -4.3430     0.4470 hc         1 S29       0.057200
     49 H22          0.7170    -3.7370    -2.3550 hc         1 S29       0.066700
     50 H22A         0.4150    -5.1830    -1.3950 hc         1 S29       0.066700
     51 H23         -1.0650    -4.0340     0.0810 h1         1 S29       0.050200
     52 H23A        -1.3690    -3.1200    -1.3990 h1         1 S29       0.050200
     53 HN19         3.6920    -1.1290     0.0680 hn         1 S29       0.316500
     54 H20          4.2610    -0.5520    -2.6180 h1         1 S29       0.061200
     55 H20A         3.4130     0.8560    -1.9930 h1         1 S29       0.061200
     56 H31          4.3610     2.1390    -0.0700 ha         1 S29       0.139000
     57 H29          6.3860     2.8530     1.0870 ha         1 S29       0.147500
     58 HN30        10.7630     1.6170     1.0770 hn         1 S29       0.372400
     59 HN32         7.8490     2.3020     2.6640 hn         1 S29       0.406300
     60 HN3A         9.5100     2.5750     2.7050 hn         1 S29       0.406300
     61 H27          8.5400    -0.4120    -0.6600 ha         1 S29       0.147500
     62 H25          6.4950    -1.1260    -1.8260 ha         1 S29       0.139000
@<TRIPOS>BOND
     1     1     2 1   
     2     1     3 1   
     3     1    34 1   
     4     1    35 1   
     5     2     9 2   
     6     2    10 2   
     7     2    11 1   
     8     3     4 ar  
     9     3     8 ar  
    10     4     5 ar  
    11     4    36 1   
    12     5     6 ar  
    13     5    37 1   
    14     6     7 ar  
    15     6    38 1   
    16     7     8 ar  
    17     7    39 1   
    18     8    40 1   
    19    11    12 1   
    20    11    41 1   
    21    12    13 1   
    22    12    14 1   
    23    12    42 1   
    24    13    43 1   
    25    13    44 1   
    26    13    45 1   
    27    14    15 2   
    28    14    16 1   
    29    16    17 1   
    30    16    22 1   
    31    17    18 1   
    32    17    20 1   
    33    17    46 1   
    34    18    19 2   
    35    18    23 1   
    36    20    21 1   
    37    20    47 1   
    38    20    48 1   
    39    21    22 1   
    40    21    49 1   
    41    21    50 1   
    42    22    51 1   
    43    22    52 1   
    44    23    24 1   
    45    23    53 1   
    46    24    25 1   
    47    24    54 1   
    48    24    55 1   
    49    25    26 ar  
    50    25    33 ar  
    51    26    27 ar  
    52    26    56 1   
    53    27    28 ar  
    54    27    57 1   
    55    28    29 1   
    56    28    32 ar  
    57    29    30 2   
    58    29    31 1   
    59    30    58 1   
    60    31    59 1   
    61    31    60 1   
    62    32    33 ar  
    63    32    61 1   
    64    33    62 1   
@<TRIPOS>SUBSTRUCTURE
     1 S29         1 TEMP              0 ****  ****    0 ROOT
