@<TRIPOS>MOLECULE
S29
   62    64     1     0     0
SMALL
No Charge or Current Charge


@<TRIPOS>ATOM
      1 C7          -5.2570    -0.1760     0.5770 c3         1 S29      -0.279100
      2 S8          -4.0260     0.9980     1.1830 s6         1 S29       1.207100
      3 C6          -5.9560     0.2650    -0.7030 ca         1 S29      -0.078300
      4 C1          -5.4150    -0.0720    -1.9580 ca         1 S29      -0.085500
      5 C2          -6.0600     0.3340    -3.1390 ca         1 S29      -0.108500
      6 C3          -7.2500     1.0780    -3.0710 ca         1 S29      -0.099000
      7 C4          -7.7950     1.4150    -1.8200 ca         1 S29      -0.108500
      8 C5          -7.1500     1.0090    -0.6390 ca         1 S29      -0.085500
      9 O13         -2.9020     1.0500     0.2470 o          1 S29      -0.523000
     10 O14         -4.6770     2.2330     1.6250 o          1 S29      -0.523000
     11 N9          -3.4630     0.2600     2.5740 n7         1 S29      -0.905300
     12 C10         -2.5900    -0.9540     2.4650 c3         1 S29       0.164500
     13 C33         -2.6050    -1.6700     3.8330 c3         1 S29      -0.124100
     14 C11         -1.0970    -0.6800     2.0090 c          1 S29       0.613100
     15 O15         -0.5300     0.3840     2.2520 o          1 S29      -0.595100
     16 N12         -0.3830    -1.7100     1.3480 n          1 S29      -0.396800
     17 C16          1.0500    -1.5600     0.9660 c5         1 S29       0.027700
     18 C17          1.2900    -0.6940    -0.3140 c          1 S29       0.593100
     19 O18          0.4630    -0.3290    -1.1400 o          1 S29      -0.589100
     20 C21          1.4350    -3.0440     0.6820 c5         1 S29      -0.083400
     21 C22          0.1420    -3.6010     0.0360 c5         1 S29      -0.093400
     22 C23         -0.9580    -3.0210     0.9620 c5         1 S29       0.109000
     23 N19          2.6230    -0.3530    -0.3910 ns         1 S29      -0.503900
     24 C20          3.2000     0.4550    -1.4590 c3         1 S29       0.152300
     25 C24          4.7070     0.5770    -1.2950 ca         1 S29      -0.103300
     26 C31          5.2610     1.6580    -0.5880 ca         1 S29      -0.104500
     27 C29          6.6540     1.7690    -0.4320 ca         1 S29      -0.082500
     28 C28          7.5240     0.7890    -0.9690 ca         1 S29      -0.135900
     29 C26          9.0150     0.9100    -0.8400 ce         1 S29       0.658800
     30 N30          9.8330     0.2830    -1.5800 n2         1 S29      -0.826100
     31 N32          9.5110     1.6440     0.1810 nv         1 S29      -1.076200
     32 C27          6.9550    -0.2830    -1.6960 ca         1 S29      -0.082500
     33 C25          5.5620    -0.3920    -1.8500 ca         1 S29      -0.104500
     34 H7          -5.9880    -0.3090     1.3820 h1         1 S29       0.090700
     35 H7A         -4.7340    -1.1230     0.4100 h1         1 S29       0.090700
     36 H1          -4.4930    -0.6460    -2.0200 ha         1 S29       0.118500
     37 H2          -5.6370     0.0720    -4.1070 ha         1 S29       0.115500
     38 H3          -7.7490     1.3920    -3.9850 ha         1 S29       0.114000
     39 H4          -8.7170     1.9900    -1.7660 ha         1 S29       0.115500
     40 H5          -7.5780     1.2740     0.3250 ha         1 S29       0.118500
     41 HN9         -4.3480    -0.0060     3.0030 hn         1 S29       0.510000
     42 H10         -3.0230    -1.6520     1.7380 h1         1 S29       0.094700
     43 H33         -2.1900    -1.0200     4.6140 hc         1 S29       0.048700
     44 H33A        -3.6260    -1.9490     4.1200 hc         1 S29       0.048700
     45 H33B        -2.0030    -2.5850     3.8000 hc         1 S29       0.048700
     46 H16          1.6460    -1.1420     1.7880 h1         1 S29       0.075700
     47 H21          2.3130    -3.1490     0.0340 hc         1 S29       0.057200
     48 H21A         1.6620    -3.5720     1.6160 hc         1 S29       0.057200
     49 H22          0.0230    -3.2400    -0.9920 hc         1 S29       0.066700
     50 H22A         0.1220    -4.6960     0.0000 hc         1 S29       0.066700
     51 H23         -1.1090    -3.6540     1.8460 h1         1 S29       0.050200
     52 H23A        -1.9110    -2.9270     0.4260 h1         1 S29       0.050200
     53 HN19         3.2370    -0.6950     0.3390 hn         1 S29       0.316500
     54 H20          2.9680    -0.0110    -2.4270 h1         1 S29       0.061200
     55 H20A         2.7400     1.4520    -1.4430 h1         1 S29       0.061200
     56 H31          4.6120     2.4200    -0.1610 ha         1 S29       0.121000
     57 H29          7.0500     2.6310     0.1010 ha         1 S29       0.129500
     58 HN30        10.7650     0.6860    -1.4340 hn         1 S29       0.372400
     59 HN32         8.8420     1.8620     0.9100 hn         1 S29       0.461500
     60 HN3A        10.4340     1.3860     0.5100 hn         1 S29       0.461500
     61 H27          7.5940    -1.0450    -2.1390 ha         1 S29       0.129500
     62 H25          5.1480    -1.2320    -2.4030 ha         1 S29       0.121000
@<TRIPOS>BOND
     1     1     2 1   
     2     1     3 1   
     3     1    34 1   
     4     1    35 1   
     5     2     9 2   
     6     2    10 2   
     7     2    11 1   
     8     3     4 ar  
     9     3     8 ar  
    10     4     5 ar  
    11     4    36 1   
    12     5     6 ar  
    13     5    37 1   
    14     6     7 ar  
    15     6    38 1   
    16     7     8 ar  
    17     7    39 1   
    18     8    40 1   
    19    11    12 1   
    20    11    41 1   
    21    12    13 1   
    22    12    14 1   
    23    12    42 1   
    24    13    43 1   
    25    13    44 1   
    26    13    45 1   
    27    14    15 2   
    28    14    16 1   
    29    16    17 1   
    30    16    22 1   
    31    17    18 1   
    32    17    20 1   
    33    17    46 1   
    34    18    19 2   
    35    18    23 1   
    36    20    21 1   
    37    20    47 1   
    38    20    48 1   
    39    21    22 1   
    40    21    49 1   
    41    21    50 1   
    42    22    51 1   
    43    22    52 1   
    44    23    24 1   
    45    23    53 1   
    46    24    25 1   
    47    24    54 1   
    48    24    55 1   
    49    25    26 ar  
    50    25    33 ar  
    51    26    27 ar  
    52    26    56 1   
    53    27    28 ar  
    54    27    57 1   
    55    28    29 1   
    56    28    32 ar  
    57    29    30 2   
    58    29    31 1   
    59    30    58 1   
    60    31    59 1   
    61    31    60 1   
    62    32    33 ar  
    63    32    61 1   
    64    33    62 1   
@<TRIPOS>SUBSTRUCTURE
     1 S29         1 TEMP              0 ****  ****    0 ROOT
