@<TRIPOS>MOLECULE
S2D
   24    24     1     0     0
SMALL
No Charge or Current Charge


@<TRIPOS>ATOM
      1 O2           0.1540    -2.1220     0.3550 o          1 S2D      -0.656100
      2 C4           0.2970    -0.9250     0.1310 c          1 S2D       0.593700
      3 C27          1.6670    -0.2760     0.0630 ca         1 S2D      -0.126600
      4 C32          2.8220    -1.0680     0.2660 ca         1 S2D      -0.074500
      5 C31          4.1060    -0.5000     0.2090 ca         1 S2D      -0.131000
      6 C30          4.2590     0.8700    -0.0510 ca         1 S2D      -0.113000
      7 C29          3.1250     1.6710    -0.2550 ca         1 S2D      -0.131000
      8 C28          1.8380     1.1080    -0.1990 ca         1 S2D      -0.074500
      9 N1          -0.7910    -0.0990    -0.0660 ns         1 S2D      -0.458900
     10 C2          -2.2120    -0.5230    -0.0740 c3         1 S2D      -0.047300
     11 C3          -2.5860    -1.2270    -1.3980 c3         1 S2D      -0.076100
     12 C1          -3.1500     0.6910     0.2100 c          1 S2D       0.715000
     13 O1          -2.8460     1.7830    -0.2530 o          1 S2D      -0.725000
     14 OXT         -4.0860     0.5280     0.9810 o          1 S2D      -0.725000
     15 H1          -0.5970     0.8810    -0.2310 hn         1 S2D       0.344500
     16 H32          2.7260    -2.1330     0.4690 ha         1 S2D       0.129500
     17 H28          0.9870     1.7630    -0.3640 ha         1 S2D       0.129500
     18 H31          4.9830    -1.1230     0.3680 ha         1 S2D       0.102000
     19 H30          5.2530     1.3100    -0.0940 ha         1 S2D       0.097000
     20 H29          3.2430     2.7340    -0.4570 ha         1 S2D       0.102000
     21 H2          -2.3550    -1.2370     0.7480 h1         1 S2D       0.051700
     22 H3C1        -1.9610    -2.1130    -1.5610 hc         1 S2D       0.024700
     23 H3C2        -3.6340    -1.5490    -1.3770 hc         1 S2D       0.024700
     24 H3C3        -2.4520    -0.5490    -2.2490 hc         1 S2D       0.024700
@<TRIPOS>BOND
     1     1     2 2   
     2     2     3 1   
     3     2     9 1   
     4     3     4 ar  
     5     3     8 ar  
     6     4     5 ar  
     7     4    16 1   
     8     5     6 ar  
     9     5    18 1   
    10     6     7 ar  
    11     6    19 1   
    12     7     8 ar  
    13     7    20 1   
    14     8    17 1   
    15     9    10 1   
    16     9    15 1   
    17    10    11 1   
    18    10    12 1   
    19    10    21 1   
    20    11    22 1   
    21    11    23 1   
    22    11    24 1   
    23    12    13 1   
    24    12    14 1   
@<TRIPOS>SUBSTRUCTURE
     1 S2D         1 TEMP              0 ****  ****    0 ROOT
