@<TRIPOS>MOLECULE
S2D
   24    24     1     0     0
SMALL
abcg2


@<TRIPOS>ATOM
      1 O2           0.2240    -2.1680    -0.0330 o          1 S2D      -0.656100
      2 C4           0.3080    -0.9430    -0.0480 c          1 S2D       0.593700
      3 C27          1.6480    -0.2700    -0.0470 ca         1 S2D      -0.126600
      4 C32          2.7430    -0.9810     0.4420 ca         1 S2D      -0.074500
      5 C31          4.0040    -0.4070     0.4600 ca         1 S2D      -0.131000
      6 C30          4.1900     0.8810    -0.0280 ca         1 S2D      -0.113000
      7 C29          3.1090     1.5900    -0.5320 ca         1 S2D      -0.131000
      8 C28          1.8440     1.0190    -0.5400 ca         1 S2D      -0.074500
      9 N1          -0.7520    -0.1330    -0.0560 ns         1 S2D      -0.458900
     10 C2          -2.1280    -0.5760    -0.0270 c3         1 S2D      -0.047300
     11 C3          -2.5880    -1.1010    -1.3850 c3         1 S2D      -0.076100
     12 C1          -3.0200     0.6070     0.4270 c          1 S2D       0.715000
     13 O1          -2.4600     1.7100     0.5890 o          1 S2D      -0.725000
     14 OXT         -4.2240     0.3440     0.5770 o          1 S2D      -0.725000
     15 H1          -0.6520     0.8630     0.0900 hn         1 S2D       0.344500
     16 H32          2.6040    -1.9880     0.8140 ha         1 S2D       0.129500
     17 H28          1.0210     1.5820    -0.9610 ha         1 S2D       0.129500
     18 H31          4.8450    -0.9660     0.8500 ha         1 S2D       0.102000
     19 H30          5.1760     1.3270    -0.0210 ha         1 S2D       0.097000
     20 H29          3.2500     2.5880    -0.9260 ha         1 S2D       0.102000
     21 H2          -2.2320    -1.3790     0.7110 h1         1 S2D       0.051700
     22 H3C1        -1.9780    -1.9440    -1.7090 hc         1 S2D       0.024700
     23 H3C2        -3.6230    -1.4380    -1.3300 hc         1 S2D       0.024700
     24 H3C3        -2.5220    -0.3220    -2.1460 hc         1 S2D       0.024700
@<TRIPOS>BOND
     1     1     2 2   
     2     2     3 1   
     3     2     9 1   
     4     3     4 ar  
     5     3     8 ar  
     6     4     5 ar  
     7     4    16 1   
     8     5     6 ar  
     9     5    18 1   
    10     6     7 ar  
    11     6    19 1   
    12     7     8 ar  
    13     7    20 1   
    14     8    17 1   
    15     9    10 1   
    16     9    15 1   
    17    10    11 1   
    18    10    12 1   
    19    10    21 1   
    20    11    22 1   
    21    11    23 1   
    22    11    24 1   
    23    12    13 1   
    24    12    14 1   
@<TRIPOS>SUBSTRUCTURE
     1 S2D         1 TEMP              0 ****  ****    0 ROOT
