@<TRIPOS>MOLECULE
S2E
   53    56     1     0     0
SMALL
abcg2


@<TRIPOS>ATOM
      1 C02         20.2560   -16.1420    -7.0330 ce         1 S2E       0.684800
      2 C04         20.6590   -17.5590    -6.9510 cc         1 S2E      -0.326900
      3 C05         21.2400   -18.1940    -5.8860 cd         1 S2E      -0.090000
      4 C06         21.5140   -19.5750    -6.1200 cd         1 S2E      -0.059000
      5 C07         21.1250   -19.9520    -7.3850 cc         1 S2E      -0.232000
      6 C09         22.1320   -20.4770    -5.1330 ca         1 S2E       0.013000
      7 C10         21.9310   -21.8600    -5.1950 ca         1 S2E      -0.123000
      8 C11         22.5370   -22.6950    -4.2640 ca         1 S2E      -0.082000
      9 C12         23.3330   -22.1710    -3.2570 ca         1 S2E      -0.156000
     10 C13         23.5320   -20.7890    -3.1790 ca         1 S2E      -0.025000
     11 C15         24.5120   -19.0560    -1.6780 c          1 S2E       0.582100
     12 C17         25.5070   -18.9500    -0.5040 c6         1 S2E       0.109000
     13 C18         25.2190   -17.7470     0.3980 c6         1 S2E      -0.113900
     14 C19         26.3420   -17.5440     1.4060 c6         1 S2E       0.156100
     15 C21         27.9490   -18.5230    -0.0130 c6         1 S2E       0.156100
     16 C22         26.9170   -18.7970    -1.0990 c6         1 S2E      -0.113900
     17 C24         24.5640   -20.5710     1.0930 ca         1 S2E       0.120100
     18 C25         23.2250   -20.2110     0.9640 ca         1 S2E      -0.147500
     19 C26         22.2870   -20.7010     1.8670 ca         1 S2E      -0.071500
     20 C27         22.6890   -21.5540     2.8820 ca         1 S2E       0.097000
     21 C29         24.0210   -21.9270     3.0150 ca         1 S2E      -0.071500
     22 C30         24.9550   -21.4300     2.1200 ca         1 S2E      -0.147500
     23 C31         22.9380   -19.9480    -4.1190 ca         1 S2E      -0.123000
     24 N01         19.2560   -15.8620    -7.9270 nv         1 S2E      -1.039200
     25 N03         20.8140   -15.1950    -6.3640 n2         1 S2E      -0.833100
     26 N14         24.3550   -20.3190    -2.1420 ns         1 S2E      -0.139000
     27 O16         23.9780   -18.0600    -2.1500 o          1 S2E      -0.579100
     28 O20         27.6040   -17.3770     0.7620 os         1 S2E      -0.453000
     29 O23         25.5650   -20.1870     0.2390 os         1 S2E      -0.376100
     30 S08         20.4410   -18.6600    -8.2740 ss         1 S2E       0.242000
     31 CL1         21.5040   -22.1690     4.0160 cl         1 S2E      -0.205000
     32 H051        21.4350   -17.6930    -4.9480 ha         1 S2E       0.147000
     33 H071        21.2340   -20.9180    -7.8500 h4         1 S2E       0.153000
     34 H101        21.2920   -22.2820    -5.9580 ha         1 S2E       0.116000
     35 H111        22.3780   -23.7640    -4.3160 ha         1 S2E       0.116000
     36 H121        23.7990   -22.8210    -2.5270 ha         1 S2E       0.115000
     37 H181        25.1330   -16.8680    -0.2380 hc         1 S2E       0.074950
     38 H182        24.2720   -17.8620     0.9240 hc         1 S2E       0.074950
     39 H192        26.1680   -16.6380     1.9840 h1         1 S2E       0.054450
     40 H191        26.3930   -18.3920     2.1010 h1         1 S2E       0.054450
     41 H211        28.0490   -19.3950     0.6440 h1         1 S2E       0.054450
     42 H212        28.9200   -18.3140    -0.4610 h1         1 S2E       0.054450
     43 H221        27.1820   -19.7050    -1.6450 hc         1 S2E       0.074950
     44 H222        26.8980   -17.9670    -1.8080 hc         1 S2E       0.074950
     45 H251        22.8880   -19.5550     0.1760 ha         1 S2E       0.132000
     46 H261        21.2470   -20.4190     1.7690 ha         1 S2E       0.134000
     47 H291        24.3270   -22.5910     3.8120 ha         1 S2E       0.134000
     48 H301        25.9990   -21.7010     2.2090 ha         1 S2E       0.132000
     49 H311        23.1180   -18.8890    -4.0640 ha         1 S2E       0.147000
     50 H012        18.9070   -14.9150    -7.9130 hn         1 S2E       0.472000
     51 H031        21.6050   -15.5500    -5.8350 hn         1 S2E       0.392400
     52 H141        24.8360   -21.0320    -1.6110 hn         1 S2E       0.168000
     53 H011        18.5600   -16.5690    -8.1060 hn         1 S2E       0.472000
@<TRIPOS>BOND
     1     1     2 1   
     2     1    24 1   
     3     1    25 2   
     4     2     3 2   
     5     2    30 1   
     6     3     4 1   
     7     3    32 1   
     8     4     5 2   
     9     4     6 1   
    10     5    30 1   
    11     5    33 1   
    12     6     7 ar  
    13     6    23 ar  
    14     7     8 ar  
    15     7    34 1   
    16     8     9 ar  
    17     8    35 1   
    18     9    10 ar  
    19     9    36 1   
    20    10    23 ar  
    21    10    26 1   
    22    11    12 1   
    23    11    26 1   
    24    11    27 2   
    25    12    13 1   
    26    12    16 1   
    27    12    29 1   
    28    13    14 1   
    29    13    37 1   
    30    13    38 1   
    31    14    28 1   
    32    14    39 1   
    33    14    40 1   
    34    15    16 1   
    35    15    28 1   
    36    15    41 1   
    37    15    42 1   
    38    16    43 1   
    39    16    44 1   
    40    17    18 ar  
    41    17    22 ar  
    42    17    29 1   
    43    18    19 ar  
    44    18    45 1   
    45    19    20 ar  
    46    19    46 1   
    47    20    21 ar  
    48    20    31 1   
    49    21    22 ar  
    50    21    47 1   
    51    22    48 1   
    52    23    49 1   
    53    24    50 1   
    54    24    53 1   
    55    25    51 1   
    56    26    52 1   
@<TRIPOS>SUBSTRUCTURE
     1 S2E         1 TEMP              0 ****  ****    0 ROOT
