@<TRIPOS>MOLECULE
S2E
   53    56     1     0     0
SMALL
No Charge or Current Charge


@<TRIPOS>ATOM
      1 C02         20.7230   -15.9300    -7.5850 ce         1 S2E       0.684800
      2 C04         20.8560   -17.3550    -7.3360 cc         1 S2E      -0.326900
      3 C05         21.5300   -18.0010    -6.3200 cd         1 S2E      -0.090000
      4 C06         21.4800   -19.4310    -6.3690 cd         1 S2E      -0.059000
      5 C07         20.7520   -19.8650    -7.4550 cc         1 S2E      -0.232000
      6 C09         22.1230   -20.3460    -5.3880 ca         1 S2E       0.013000
      7 C10         22.0150   -21.7480    -5.5300 ca         1 S2E      -0.123000
      8 C11         22.6240   -22.6150    -4.6100 ca         1 S2E      -0.082000
      9 C12         23.3490   -22.1010    -3.5260 ca         1 S2E      -0.156000
     10 C13         23.4650   -20.7080    -3.3510 ca         1 S2E      -0.025000
     11 C15         24.6950   -20.6320    -1.0890 c          1 S2E       0.582100
     12 C17         25.4740   -19.5950    -0.1800 c6         1 S2E       0.109000
     13 C18         24.7730   -18.1880    -0.1440 c6         1 S2E      -0.113900
     14 C19         25.6390   -17.1390     0.5940 c6         1 S2E       0.156100
     15 C21         27.6680   -18.2340    -0.1130 c6         1 S2E       0.156100
     16 C22         26.8630   -19.3330    -0.8510 c6         1 S2E      -0.113900
     17 C24         24.7490   -20.5390     2.0080 ca         1 S2E       0.120100
     18 C25         23.8890   -19.6370     2.6660 ca         1 S2E      -0.147500
     19 C26         22.9060   -20.1170     3.5520 ca         1 S2E      -0.071500
     20 C27         22.7950   -21.4950     3.7980 ca         1 S2E       0.097000
     21 C29         23.6760   -22.3950     3.1750 ca         1 S2E      -0.071500
     22 C30         24.6590   -21.9130     2.2920 ca         1 S2E      -0.147500
     23 C31         22.8590   -19.8470    -4.2870 ca         1 S2E      -0.123000
     24 N01         19.9340   -15.4780    -8.5680 nv         1 S2E      -1.039200
     25 N03         21.2980   -15.0720    -6.8560 n2         1 S2E      -0.833100
     26 N14         24.1920   -20.1150    -2.2810 ns         1 S2E      -0.139000
     27 O16         24.4810   -21.7880    -0.7340 o          1 S2E      -0.579100
     28 O20         26.9050   -17.0110    -0.0850 os         1 S2E      -0.453000
     29 O23         25.7530   -20.1010     1.1680 os         1 S2E      -0.376100
     30 S08         20.1310   -18.5350    -8.4180 ss         1 S2E       0.242000
     31 Cl1         21.5680   -22.0930     4.9080 cl         1 S2E      -0.205000
     32 H051        22.0530   -17.4550    -5.5450 ha         1 S2E       0.147000
     33 H071        20.5250   -20.8700    -7.7790 h4         1 S2E       0.153000
     34 H101        21.4640   -22.1850    -6.3560 ha         1 S2E       0.116000
     35 H111        22.5370   -23.6920    -4.7420 ha         1 S2E       0.116000
     36 H121        23.8220   -22.8010    -2.8440 ha         1 S2E       0.115000
     37 H181        24.6020   -17.8070    -1.1590 hc         1 S2E       0.074950
     38 H182        23.7760   -18.2580     0.3070 hc         1 S2E       0.074950
     39 H192        25.1330   -16.1630     0.5920 h1         1 S2E       0.054450
     40 H191        25.8130   -17.4320     1.6390 h1         1 S2E       0.054450
     41 H211        27.8980   -18.5470     0.9170 h1         1 S2E       0.054450
     42 H212        28.6180   -18.0500    -0.6330 h1         1 S2E       0.054450
     43 H221        27.4490   -20.2630    -0.8660 hc         1 S2E       0.074950
     44 H222        26.7400   -19.0350    -1.9020 hc         1 S2E       0.074950
     45 H251        23.9880   -18.5670     2.5210 ha         1 S2E       0.132000
     46 H261        22.2390   -19.4210     4.0550 ha         1 S2E       0.134000
     47 H291        23.5990   -23.4600     3.3800 ha         1 S2E       0.134000
     48 H301        25.3460   -22.6070     1.8150 ha         1 S2E       0.132000
     49 H311        22.9670   -18.7780    -4.1410 ha         1 S2E       0.147000
     50 H012        19.7100   -14.4950    -8.4800 hn         1 S2E       0.472000
     51 H031        21.8710   -15.5840    -6.1760 hn         1 S2E       0.392400
     52 H141        24.3960   -19.1350    -2.4250 hn         1 S2E       0.168000
     53 H011        19.1700   -16.0820    -8.8350 hn         1 S2E       0.472000
@<TRIPOS>BOND
     1     1     2 1   
     2     1    24 1   
     3     1    25 2   
     4     2     3 2   
     5     2    30 1   
     6     3     4 1   
     7     3    32 1   
     8     4     5 2   
     9     4     6 1   
    10     5    30 1   
    11     5    33 1   
    12     6     7 ar  
    13     6    23 ar  
    14     7     8 ar  
    15     7    34 1   
    16     8     9 ar  
    17     8    35 1   
    18     9    10 ar  
    19     9    36 1   
    20    10    23 ar  
    21    10    26 1   
    22    11    12 1   
    23    11    26 1   
    24    11    27 2   
    25    12    13 1   
    26    12    16 1   
    27    12    29 1   
    28    13    14 1   
    29    13    37 1   
    30    13    38 1   
    31    14    28 1   
    32    14    39 1   
    33    14    40 1   
    34    15    16 1   
    35    15    28 1   
    36    15    41 1   
    37    15    42 1   
    38    16    43 1   
    39    16    44 1   
    40    17    18 ar  
    41    17    22 ar  
    42    17    29 1   
    43    18    19 ar  
    44    18    45 1   
    45    19    20 ar  
    46    19    46 1   
    47    20    21 ar  
    48    20    31 1   
    49    21    22 ar  
    50    21    47 1   
    51    22    48 1   
    52    23    49 1   
    53    24    50 1   
    54    24    53 1   
    55    25    51 1   
    56    26    52 1   
@<TRIPOS>SUBSTRUCTURE
     1 S2E         1 TEMP              0 ****  ****    0 ROOT
