@<TRIPOS>MOLECULE
S2F
   56    57     1     0     0
SMALL
abcg2


@<TRIPOS>ATOM
      1 C10        113.2330    98.1870    80.9300 c5         1 S2F      -0.038700
      2 C13        112.8050    96.2800    82.3240 c5         1 S2F      -0.116400
      3 C17        113.3880    99.9560    82.7470 c2         1 S2F      -0.134200
      4 C22        114.7380   103.1970    83.0290 c3         1 S2F       0.115600
      5 C24        114.7730   105.5480    82.8240 ca         1 S2F       0.112100
      6 C26        114.3740   106.9250    80.8970 ca         1 S2F      -0.096000
      7 C28        116.0010   107.5920    82.5300 ca         1 S2F      -0.096000
      8 O01        116.6300    95.7310    74.7780 o          1 S2F      -0.743000
      9 C02        117.2900    95.4340    75.7960 c          1 S2F       0.714000
     10 O03        118.5310    95.3110    75.8640 o          1 S2F      -0.743000
     11 C04        116.5020    95.1380    77.0900 c3         1 S2F      -0.210400
     12 C05        115.1380    95.8020    77.2010 c3         1 S2F      -0.033400
     13 C06        115.2200    97.3240    77.3390 c3         1 S2F      -0.055200
     14 C07        113.8650    97.9500    77.4320 c2         1 S2F      -0.157200
     15 C08        113.3300    98.6060    78.4610 c2         1 S2F      -0.283200
     16 C09        113.9500    98.9070    79.7910 c3         1 S2F      -0.015200
     17 C11        113.3500    96.6630    80.9420 c5         1 S2F       0.174300
     18 O12        114.7170    96.3310    80.8050 oh         1 S2F      -0.643000
     19 C14        112.9730    97.5220    83.2200 c5         1 S2F       0.181300
     20 O15        113.6540    97.2040    84.4090 oh         1 S2F      -0.653000
     21 C16        113.7030    98.5610    82.3400 c5         1 S2F      -0.090500
     22 C18        114.2530   100.7700    83.3420 c2         1 S2F      -0.323200
     23 C19        113.9410   102.1570    83.7890 c3         1 S2F       0.229200
     24 O23        114.4910   104.4620    83.6000 os         1 S2F      -0.350100
     25 C25        114.0910   105.7840    81.6350 ca         1 S2F      -0.132000
     26 C27        115.3280   107.8330    81.3400 ca         1 S2F      -0.123000
     27 C29        115.7320   106.4480    83.2700 ca         1 S2F      -0.132000
     28 F20        114.2140   102.2720    85.1280 f          1 S2F      -0.115000
     29 F21        112.6110   102.4310    83.6650 f          1 S2F      -0.115000
     30 H1         112.1620    98.4210    80.8600 hc         1 S2F       0.040700
     31 H2         111.7520    96.0040    82.2550 hc         1 S2F       0.056200
     32 H3         113.3330    95.4180    82.7360 hc         1 S2F       0.056200
     33 H4         112.3680   100.2840    82.5630 ha         1 S2F       0.180000
     34 H6         114.4430   103.1470    81.9760 h1         1 S2F       0.057700
     35 H7         115.8040   102.9460    83.0820 h1         1 S2F       0.057700
     36 H8         113.8380   107.1080    79.9750 ha         1 S2F       0.113000
     37 H9         116.7470   108.2920    82.8840 ha         1 S2F       0.113000
     38 H11        116.3720    94.0500    77.1450 hc         1 S2F       0.017700
     39 H12        117.1160    95.3990    77.9570 hc         1 S2F       0.017700
     40 H13        114.5320    95.5440    76.3290 hc         1 S2F       0.014200
     41 H14        114.6090    95.4050    78.0720 hc         1 S2F       0.014200
     42 H15        115.8310    97.5750    78.2090 hc         1 S2F       0.060200
     43 H16        115.7400    97.7260    76.4640 hc         1 S2F       0.060200
     44 H17        113.2420    97.8230    76.5490 ha         1 S2F       0.159000
     45 H19        112.3100    98.9660    78.3470 ha         1 S2F       0.142000
     46 H21        115.0140    98.6680    79.8060 hc         1 S2F       0.047700
     47 H22        113.8760    99.9850    79.9730 hc         1 S2F       0.047700
     48 H23        112.7610    96.2100    80.1350 h1         1 S2F       0.053700
     49 H24        114.8000    95.3740    80.8510 ho         1 S2F       0.445000
     50 H25        111.9760    97.9230    83.4520 h1         1 S2F       0.021700
     51 H26        113.6860    97.9950    84.9560 ho         1 S2F       0.444000
     52 H27        114.7810    98.3870    82.4190 hc         1 S2F       0.090700
     53 H28        115.2770   100.4500    83.5170 ha         1 S2F       0.198000
     54 H30        113.3320   105.0920    81.2920 ha         1 S2F       0.125500
     55 H31        115.5420   108.7230    80.7630 ha         1 S2F       0.112000
     56 H32        116.2580   106.2560    84.1970 ha         1 S2F       0.125500
@<TRIPOS>BOND
     1     1    16 1   
     2     1    17 1   
     3     1    21 1   
     4     1    30 1   
     5     2    17 1   
     6     2    19 1   
     7     2    31 1   
     8     2    32 1   
     9     3    21 1   
    10     3    22 2   
    11     3    33 1   
    12     4    23 1   
    13     4    24 1   
    14     4    34 1   
    15     4    35 1   
    16     5    24 1   
    17     5    25 ar  
    18     5    27 ar  
    19     6    25 ar  
    20     6    26 ar  
    21     6    36 1   
    22     7    26 ar  
    23     7    27 ar  
    24     7    37 1   
    25     8     9 1   
    26     9    10 1   
    27     9    11 1   
    28    11    12 1   
    29    11    38 1   
    30    11    39 1   
    31    12    13 1   
    32    12    40 1   
    33    12    41 1   
    34    13    14 1   
    35    13    42 1   
    36    13    43 1   
    37    14    15 2   
    38    14    44 1   
    39    15    16 1   
    40    15    45 1   
    41    16    46 1   
    42    16    47 1   
    43    17    18 1   
    44    17    48 1   
    45    18    49 1   
    46    19    20 1   
    47    19    21 1   
    48    19    50 1   
    49    20    51 1   
    50    21    52 1   
    51    22    23 1   
    52    22    53 1   
    53    23    28 1   
    54    23    29 1   
    55    25    54 1   
    56    26    55 1   
    57    27    56 1   
@<TRIPOS>SUBSTRUCTURE
     1 S2F         1 TEMP              0 ****  ****    0 ROOT
