@<TRIPOS>MOLECULE
S2F
   56    57     1     0     0
SMALL
No Charge or Current Charge


@<TRIPOS>ATOM
      1 C10        113.4030    98.3780    81.0370 c5         1 S2F      -0.038700
      2 C13        112.5370    96.3710    82.1360 c5         1 S2F      -0.116400
      3 C17        113.6600    99.8690    83.0590 c2         1 S2F      -0.134200
      4 C22        114.7750   102.9190    82.9440 c3         1 S2F       0.115600
      5 C24        114.8350   105.3740    82.6530 ca         1 S2F       0.112100
      6 C26        114.8020   106.4530    80.4620 ca         1 S2F      -0.096000
      7 C28        114.8960   107.8080    82.4820 ca         1 S2F      -0.096000
      8 O01        116.8590    94.8600    74.8170 o          1 S2F      -0.743000
      9 C02        117.0640    95.2360    75.9610 c          1 S2F       0.714000
     10 O03        118.0720    95.8340    76.3040 o          1 S2F      -0.743000
     11 C04        115.9790    94.9610    77.0190 c3         1 S2F      -0.210400
     12 C05        114.9030    96.0780    77.0360 c3         1 S2F      -0.033400
     13 C06        115.4110    97.4610    77.5030 c3         1 S2F      -0.055200
     14 C07        114.2900    98.4850    77.5660 c2         1 S2F      -0.157200
     15 C08        113.8500    99.1700    78.6380 c2         1 S2F      -0.283200
     16 C09        114.3630    99.1200    80.0690 c3         1 S2F      -0.015200
     17 C11        113.2920    96.8290    80.8430 c5         1 S2F       0.174300
     18 O12        114.5660    96.1840    80.7540 oh         1 S2F      -0.643000
     19 C14        112.6380    97.5690    83.1330 c5         1 S2F       0.181300
     20 O15        112.9230    97.1480    84.4630 oh         1 S2F      -0.653000
     21 C16        113.7820    98.4360    82.5420 c5         1 S2F      -0.090500
     22 C18        114.7340   100.4710    83.6010 c2         1 S2F      -0.323200
     23 C19        114.7790   101.8990    84.1120 c3         1 S2F       0.229200
     24 O23        114.8270   104.2630    83.4710 os         1 S2F      -0.350100
     25 C25        114.7920   105.2830    81.2430 ca         1 S2F      -0.132000
     26 C27        114.8540   107.7130    81.0800 ca         1 S2F      -0.123000
     27 C29        114.8870   106.6390    83.2630 ca         1 S2F      -0.132000
     28 F20        115.8880   102.0840    84.8650 f          1 S2F      -0.115000
     29 F21        113.7200   102.1360    84.9220 f          1 S2F      -0.115000
     30 H1         112.4180    98.8380    80.8810 hc         1 S2F       0.040700
     31 H2         111.4870    96.1450    81.9190 hc         1 S2F       0.056200
     32 H3         112.9690    95.4530    82.5510 hc         1 S2F       0.056200
     33 H4         112.7140   100.4100    82.9700 ha         1 S2F       0.180000
     34 H6         113.8650   102.7740    82.3470 h1         1 S2F       0.057700
     35 H7         115.6420   102.7230    82.2990 h1         1 S2F       0.057700
     36 H8         114.7690   106.3820    79.3770 ha         1 S2F       0.113000
     37 H9         114.9370   108.7830    82.9610 ha         1 S2F       0.113000
     38 H11        115.4280    94.0480    76.7600 hc         1 S2F       0.017700
     39 H12        116.4130    94.9360    78.0260 hc         1 S2F       0.017700
     40 H13        114.4650    96.1720    76.0340 hc         1 S2F       0.014200
     41 H14        114.0900    95.7640    77.7020 hc         1 S2F       0.014200
     42 H15        115.9050    97.3430    78.4720 hc         1 S2F       0.060200
     43 H16        116.1810    97.8170    76.8090 hc         1 S2F       0.060200
     44 H17        113.8070    98.6500    76.6000 ha         1 S2F       0.159000
     45 H19        113.0250    99.8720    78.5070 ha         1 S2F       0.142000
     46 H21        115.3640    98.6800    80.1250 hc         1 S2F       0.047700
     47 H22        114.4950   100.1520    80.4180 hc         1 S2F       0.047700
     48 H23        112.7030    96.6000    79.9430 h1         1 S2F       0.053700
     49 H24        114.3920    95.2380    80.5590 ho         1 S2F       0.445000
     50 H25        111.6950    98.1350    83.1190 h1         1 S2F       0.021700
     51 H26        113.1970    97.9560    84.9500 ho         1 S2F       0.444000
     52 H27        114.7720    98.0020    82.7340 hc         1 S2F       0.090700
     53 H28        115.6860    99.9440    83.6830 ha         1 S2F       0.198000
     54 H30        114.7510   104.3210    80.7400 ha         1 S2F       0.125500
     55 H31        114.8610   108.6170    80.4740 ha         1 S2F       0.112000
     56 H32        114.9200   106.7130    84.3480 ha         1 S2F       0.125500
@<TRIPOS>BOND
     1     1    16 1   
     2     1    17 1   
     3     1    21 1   
     4     1    30 1   
     5     2    17 1   
     6     2    19 1   
     7     2    31 1   
     8     2    32 1   
     9     3    21 1   
    10     3    22 2   
    11     3    33 1   
    12     4    23 1   
    13     4    24 1   
    14     4    34 1   
    15     4    35 1   
    16     5    24 1   
    17     5    25 ar  
    18     5    27 ar  
    19     6    25 ar  
    20     6    26 ar  
    21     6    36 1   
    22     7    26 ar  
    23     7    27 ar  
    24     7    37 1   
    25     8     9 1   
    26     9    10 1   
    27     9    11 1   
    28    11    12 1   
    29    11    38 1   
    30    11    39 1   
    31    12    13 1   
    32    12    40 1   
    33    12    41 1   
    34    13    14 1   
    35    13    42 1   
    36    13    43 1   
    37    14    15 2   
    38    14    44 1   
    39    15    16 1   
    40    15    45 1   
    41    16    46 1   
    42    16    47 1   
    43    17    18 1   
    44    17    48 1   
    45    18    49 1   
    46    19    20 1   
    47    19    21 1   
    48    19    50 1   
    49    20    51 1   
    50    21    52 1   
    51    22    23 1   
    52    22    53 1   
    53    23    28 1   
    54    23    29 1   
    55    25    54 1   
    56    26    55 1   
    57    27    56 1   
@<TRIPOS>SUBSTRUCTURE
     1 S2F         1 TEMP              0 ****  ****    0 ROOT
