@<TRIPOS>MOLECULE
S2G
   16    15     1     0     0
SMALL
abcg2


@<TRIPOS>ATOM
      1 C1           2.3590    -0.2180     0.0210 c          1 S2G       0.688000
      2 C3          -0.1730    -0.1880    -0.0170 c3         1 S2G      -0.051400
      3 C4          -1.4570     0.5160     0.3890 c3         1 S2G      -0.192400
      4 C5          -2.7640    -0.1990     0.0040 c          1 S2G       0.711000
      5 O2           2.5150    -1.3520     0.5010 o          1 S2G      -0.747500
      6 O1           3.1290     0.3850    -0.7640 o          1 S2G      -0.747500
      7 O3           1.1420     1.8490    -0.1660 oh         1 S2G      -0.717000
      8 O5          -3.8210     0.4040     0.2900 o          1 S2G      -0.769000
      9 C2           1.0850     0.5630     0.4090 c3         1 S2G       0.022300
     10 O4          -2.6820    -1.3120    -0.5520 o          1 S2G      -0.769000
     11 H2           1.0720     0.6530     1.5070 h1         1 S2G       0.011700
     12 H3          -0.1420    -1.1850     0.4260 hc         1 S2G       0.040200
     13 H3A         -0.1530    -0.3330    -1.1030 hc         1 S2G       0.040200
     14 H4          -1.4640     0.6670     1.4760 hc         1 S2G       0.011700
     15 H4A         -1.4820     1.5250    -0.0340 hc         1 S2G       0.011700
     16 HO3          1.9650     1.7970    -0.6890 ho         1 S2G       0.456000
@<TRIPOS>BOND
     1     1     5 1   
     2     1     6 1   
     3     1     9 1   
     4     2     3 1   
     5     2     9 1   
     6     2    12 1   
     7     2    13 1   
     8     3     4 1   
     9     3    14 1   
    10     3    15 1   
    11     4     8 1   
    12     4    10 1   
    13     7     9 1   
    14     7    16 1   
    15     9    11 1   
@<TRIPOS>SUBSTRUCTURE
     1 S2G         1 TEMP              0 ****  ****    0 ROOT
