@<TRIPOS>MOLECULE
S2G
   16    15     1     0     0
SMALL
No Charge or Current Charge


@<TRIPOS>ATOM
      1 C1           2.3560    -0.2330    -0.1630 c          1 S2G       0.688000
      2 C3          -0.2150    -0.0550    -0.1180 c3         1 S2G      -0.051400
      3 C4          -1.4950     0.4600     0.5960 c3         1 S2G      -0.192400
      4 C5          -2.7400    -0.2440     0.0250 c          1 S2G       0.711000
      5 O2           2.7240    -1.2730     0.3670 o          1 S2G      -0.747500
      6 O1           2.9800     0.3180    -1.0620 o          1 S2G      -0.747500
      7 O3           1.1770     1.9550     0.1770 oh         1 S2G      -0.717000
      8 O5          -3.2970     0.2550    -0.9410 o          1 S2G      -0.769000
      9 C2           1.1130     0.5270     0.4390 c3         1 S2G       0.022300
     10 O4          -3.0920    -1.2990     0.5320 o          1 S2G      -0.769000
     11 H2           1.1290     0.3570     1.5250 h1         1 S2G       0.011700
     12 H3          -0.1810    -1.1470    -0.0190 hc         1 S2G       0.040200
     13 H3A         -0.2840     0.1560    -1.1920 hc         1 S2G       0.040200
     14 H4          -1.3660     0.2100     1.6570 hc         1 S2G       0.011700
     15 H4A         -1.5430     1.5380     0.4000 hc         1 S2G       0.011700
     16 HO3          1.8640     2.0460    -0.5270 ho         1 S2G       0.456000
@<TRIPOS>BOND
     1     1     5 1   
     2     1     6 1   
     3     1     9 1   
     4     2     3 1   
     5     2     9 1   
     6     2    12 1   
     7     2    13 1   
     8     3     4 1   
     9     3    14 1   
    10     3    15 1   
    11     4     8 1   
    12     4    10 1   
    13     7     9 1   
    14     7    16 1   
    15     9    11 1   
@<TRIPOS>SUBSTRUCTURE
     1 S2G         1 TEMP              0 ****  ****    0 ROOT
