@<TRIPOS>MOLECULE
S2H
    4     3     1     0     0
SMALL
bcc


@<TRIPOS>ATOM
      1 S1          -1.0350    -0.0180    -0.4270 sh         1 S2H      -0.222800
      2 S2           1.0490    -0.0040    -0.3780 sh         1 S2H      -0.222800
      3 HS1         -1.1880    -1.1200     0.3160 hs         1 S2H       0.222800
      4 HS2          1.1990     1.1270     0.3230 hs         1 S2H       0.222800
@<TRIPOS>BOND
     1     1     2 1   
     2     1     3 1   
     3     2     4 1   
@<TRIPOS>SUBSTRUCTURE
     1 S2H         1 TEMP              0 ****  ****    0 ROOT
