@<TRIPOS>MOLECULE
S2H
    4     3     1     0     0
SMALL
No Charge or Current Charge


@<TRIPOS>ATOM
      1 S1          -1.0320    -0.0970    -0.5310 sh         1 S2H      -0.222800
      2 S2           1.0620     0.0750    -0.4960 sh         1 S2H      -0.222800
      3 HS1         -1.2010    -1.0440     0.4260 hs         1 S2H       0.222800
      4 HS2          1.1970     1.0510     0.4360 hs         1 S2H       0.222800
@<TRIPOS>BOND
     1     1     2 1   
     2     1     3 1   
     3     2     4 1   
@<TRIPOS>SUBSTRUCTURE
     1 S2H         1 TEMP              0 ****  ****    0 ROOT
