@<TRIPOS>MOLECULE
S2I
   53    56     1     0     0
SMALL
No Charge or Current Charge


@<TRIPOS>ATOM
      1 C01          4.5030     3.2670    -0.3760 c3         1 S2I      -0.102400
      2 C02          3.1140     2.6400    -0.1580 c3         1 S2I       0.237800
      3 N03          3.2060     1.1750    -0.1290 nu         1 S2I      -0.942100
      4 C04          2.1750     0.2730     0.0460 ca         1 S2I       0.413900
      5 C05          0.8530     0.6730     0.2250 ca         1 S2I      -0.369000
      6 C06         -0.1040    -0.3340     0.3910 ca         1 S2I       0.401900
      7 N07          0.2510    -1.6330     0.3670 nb         1 S2I      -0.249000
      8 C08          1.5570    -1.9410     0.1870 cp         1 S2I       0.156000
      9 C09          1.9550    -3.4070     0.1550 cp         1 S2I       0.292000
     10 C10          3.3080    -3.8130    -0.0230 ca         1 S2I      -0.118000
     11 C11          3.6410    -5.1780    -0.0490 ca         1 S2I      -0.090000
     12 C12          2.6070    -6.1130     0.1060 ca         1 S2I      -0.155000
     13 C13          1.2930    -5.6530     0.2780 ca         1 S2I       0.325900
     14 N14          0.9730    -4.3390     0.3030 nb         1 S2I      -0.630000
     15 N15          2.5310    -1.0160     0.0280 nb         1 S2I      -0.302000
     16 N16         -1.4730    -0.0280     0.5770 nh         1 S2I      -0.760300
     17 C17         -2.5510    -0.9010     0.0480 c3         1 S2I       0.217300
     18 C18         -3.4020    -0.2380    -1.0560 c3         1 S2I      -0.062600
     19 C19         -4.4320     0.7650    -0.5320 ca         1 S2I      -0.071800
     20 C20         -5.8000     0.5250    -0.7810 ca         1 S2I      -0.110000
     21 C21         -6.7800     1.4220    -0.3290 ca         1 S2I      -0.109500
     22 C22         -6.4020     2.5730     0.3760 ca         1 S2I      -0.109500
     23 C23         -5.0450     2.8250     0.6280 ca         1 S2I      -0.110000
     24 C24         -4.0500     1.9300     0.1810 ca         1 S2I      -0.071800
     25 C25         -2.5850     2.2480     0.4830 c3         1 S2I      -0.062600
     26 C26         -1.8920     1.1690     1.3410 c3         1 S2I       0.217300
     27 C27          4.4510     4.8050    -0.4120 c3         1 S2I       0.167600
     28 O28          5.7680     5.3260    -0.6170 oh         1 S2I      -0.659000
     29 H01          5.1750     2.9490     0.4300 hc         1 S2I       0.063200
     30 H01A         4.9230     2.8990    -1.3200 hc         1 S2I       0.063200
     31 H02          2.6970     3.0070     0.7900 h1         1 S2I       0.039200
     32 H02A         2.4430     2.9560    -0.9690 h1         1 S2I       0.039200
     33 HN03         4.1280     0.7550    -0.2520 hn         1 S2I       0.506000
     34 H05          0.5750     1.7200     0.2200 ha         1 S2I       0.126000
     35 H10          4.0950    -3.0740    -0.1420 ha         1 S2I       0.144000
     36 H11          4.6710    -5.5000    -0.1850 ha         1 S2I       0.118000
     37 H12          2.8140    -7.1800     0.0930 ha         1 S2I       0.121000
     38 H13          0.4690    -6.3560     0.4010 h4         1 S2I       0.018100
     39 H17         -2.1260    -1.8180    -0.3820 h1         1 S2I       0.065200
     40 H17A        -3.2100    -1.2240     0.8650 h1         1 S2I       0.065200
     41 H18         -2.7370     0.2430    -1.7830 hc         1 S2I       0.056950
     42 H18A        -3.9100    -1.0390    -1.6060 hc         1 S2I       0.056950
     43 H20         -6.1090    -0.3620    -1.3290 ha         1 S2I       0.108500
     44 H21         -7.8320     1.2250    -0.5270 ha         1 S2I       0.112500
     45 H22         -7.1600     3.2710     0.7260 ha         1 S2I       0.112500
     46 H23         -4.7680     3.7230     1.1760 ha         1 S2I       0.108500
     47 H25         -2.0220     2.3920    -0.4460 hc         1 S2I       0.056950
     48 H25A        -2.5120     3.1980     1.0250 hc         1 S2I       0.056950
     49 H26         -2.5680     0.8750     2.1550 h1         1 S2I       0.065200
     50 H26A        -1.0200     1.6250     1.8290 h1         1 S2I       0.065200
     51 H27          3.7840     5.1270    -1.2230 h1         1 S2I       0.018700
     52 H27A         4.0380     5.1770     0.5350 h1         1 S2I       0.018700
     53 HO28         5.6880     6.3060    -0.6330 ho         1 S2I       0.447000
@<TRIPOS>BOND
     1     1     2 1   
     2     1    27 1   
     3     1    29 1   
     4     1    30 1   
     5     2     3 1   
     6     2    31 1   
     7     2    32 1   
     8     3     4 1   
     9     3    33 1   
    10     4     5 ar  
    11     4    15 ar  
    12     5     6 ar  
    13     5    34 1   
    14     6     7 ar  
    15     6    16 1   
    16     7     8 ar  
    17     8     9 1   
    18     8    15 ar  
    19     9    10 ar  
    20     9    14 ar  
    21    10    11 ar  
    22    10    35 1   
    23    11    12 ar  
    24    11    36 1   
    25    12    13 ar  
    26    12    37 1   
    27    13    14 ar  
    28    13    38 1   
    29    16    17 1   
    30    16    26 1   
    31    17    18 1   
    32    17    39 1   
    33    17    40 1   
    34    18    19 1   
    35    18    41 1   
    36    18    42 1   
    37    19    20 ar  
    38    19    24 ar  
    39    20    21 ar  
    40    20    43 1   
    41    21    22 ar  
    42    21    44 1   
    43    22    23 ar  
    44    22    45 1   
    45    23    24 ar  
    46    23    46 1   
    47    24    25 1   
    48    25    26 1   
    49    25    47 1   
    50    25    48 1   
    51    26    49 1   
    52    26    50 1   
    53    27    28 1   
    54    27    51 1   
    55    27    52 1   
    56    28    53 1   
@<TRIPOS>SUBSTRUCTURE
     1 S2I         1 TEMP              0 ****  ****    0 ROOT
