@<TRIPOS>MOLECULE
S2I
   53    56     1     0     0
SMALL
bcc


@<TRIPOS>ATOM
      1 C01          4.3780     3.2870    -0.3310 c3         1 S2I      -0.102400
      2 C02          3.0640     2.6450     0.0850 c3         1 S2I       0.237800
      3 N03          3.1130     1.2190    -0.1210 nu         1 S2I      -0.886900
      4 C04          2.1020     0.3740     0.1450 ca         1 S2I       0.742200
      5 C05          0.8620     0.8140     0.6130 ca         1 S2I      -0.517600
      6 C06         -0.1120    -0.1650     0.8420 ca         1 S2I       0.730200
      7 N07          0.1490    -1.4600     0.5990 nb         1 S2I      -0.775000
      8 C08          1.3550    -1.7630     0.1620 cp         1 S2I       0.682000
      9 C09          1.6410    -3.2060    -0.0890 cp         1 S2I       0.357300
     10 C10          2.8680    -3.5990    -0.6200 ca         1 S2I      -0.201300
     11 C11          3.1020    -4.9460    -0.8400 ca         1 S2I      -0.108000
     12 C12          2.1070    -5.8580    -0.5210 ca         1 S2I      -0.238300
     13 C13          0.9190    -5.3680     0.0040 ca         1 S2I       0.391200
     14 N14          0.6870    -4.0820     0.2150 nb         1 S2I      -0.630000
     15 N15          2.3480    -0.9270    -0.0790 nb         1 S2I      -0.828000
     16 N16         -1.3490     0.1210     1.3330 nh         1 S2I      -0.760300
     17 C17         -2.4160    -0.8510     1.1860 c3         1 S2I       0.217300
     18 C18         -3.1120    -0.7710    -0.1770 c3         1 S2I      -0.062600
     19 C19         -4.0910     0.3650    -0.3290 ca         1 S2I      -0.071800
     20 C20         -5.4140     0.0700    -0.6480 ca         1 S2I      -0.128000
     21 C21         -6.3690     1.0650    -0.8070 ca         1 S2I      -0.127500
     22 C22         -6.0020     2.3910    -0.6440 ca         1 S2I      -0.127500
     23 C23         -4.6870     2.6980    -0.3220 ca         1 S2I      -0.128000
     24 C24         -3.7200     1.7080    -0.1620 ca         1 S2I      -0.071800
     25 C25         -2.3160     2.1210     0.1970 c3         1 S2I      -0.062600
     26 C26         -1.7830     1.4910     1.4880 c3         1 S2I       0.217300
     27 C27          4.3420     4.7890    -0.1280 c3         1 S2I       0.144400
     28 O28          5.5810     5.3260    -0.5330 oh         1 S2I      -0.596800
     29 H01          5.1960     2.8570     0.2540 hc         1 S2I       0.063200
     30 H01A         4.5750     3.0650    -1.3840 hc         1 S2I       0.063200
     31 H02          2.8580     2.8700     1.1380 h1         1 S2I       0.039200
     32 H02A         2.2440     3.0830    -0.4960 h1         1 S2I       0.039200
     33 HN03         3.9710     0.8020    -0.4440 hn         1 S2I       0.450800
     34 H05          0.6740     1.8640     0.7670 ha         1 S2I       0.144000
     35 H10          3.6190    -2.8570    -0.8520 ha         1 S2I       0.162000
     36 H11          4.0450    -5.2780    -1.2530 ha         1 S2I       0.136000
     37 H12          2.2430    -6.9200    -0.6730 ha         1 S2I       0.139000
     38 H13          0.1190    -6.0520     0.2670 h4         1 S2I       0.018100
     39 H17         -2.0000    -1.8460     1.3170 h1         1 S2I       0.065200
     40 H17A        -3.1380    -0.6850     1.9880 h1         1 S2I       0.065200
     41 H18         -2.3430    -0.7210    -0.9550 hc         1 S2I       0.056950
     42 H18A        -3.6440    -1.7110    -0.3400 hc         1 S2I       0.056950
     43 H20         -5.7020    -0.9670    -0.7780 ha         1 S2I       0.126500
     44 H21         -7.3890     0.8020    -1.0550 ha         1 S2I       0.130500
     45 H22         -6.7300     3.1830    -0.7610 ha         1 S2I       0.130500
     46 H23         -4.4010     3.7350    -0.1900 ha         1 S2I       0.126500
     47 H25         -1.6230     1.8950    -0.6220 hc         1 S2I       0.056950
     48 H25A        -2.2920     3.2070     0.3160 hc         1 S2I       0.056950
     49 H26         -2.5600     1.5110     2.2550 h1         1 S2I       0.065200
     50 H26A        -0.9640     2.0920     1.8790 h1         1 S2I       0.065200
     51 H27          3.5110     5.2120    -0.7080 h1         1 S2I       0.018700
     52 H27A         4.1340     5.0070     0.9280 h1         1 S2I       0.018700
     53 HO28         5.5490     6.2790    -0.4110 ho         1 S2I       0.408000
@<TRIPOS>BOND
     1     1     2 1   
     2     1    27 1   
     3     1    29 1   
     4     1    30 1   
     5     2     3 1   
     6     2    31 1   
     7     2    32 1   
     8     3     4 1   
     9     3    33 1   
    10     4     5 ar  
    11     4    15 ar  
    12     5     6 ar  
    13     5    34 1   
    14     6     7 ar  
    15     6    16 1   
    16     7     8 ar  
    17     8     9 1   
    18     8    15 ar  
    19     9    10 ar  
    20     9    14 ar  
    21    10    11 ar  
    22    10    35 1   
    23    11    12 ar  
    24    11    36 1   
    25    12    13 ar  
    26    12    37 1   
    27    13    14 ar  
    28    13    38 1   
    29    16    17 1   
    30    16    26 1   
    31    17    18 1   
    32    17    39 1   
    33    17    40 1   
    34    18    19 1   
    35    18    41 1   
    36    18    42 1   
    37    19    20 ar  
    38    19    24 ar  
    39    20    21 ar  
    40    20    43 1   
    41    21    22 ar  
    42    21    44 1   
    43    22    23 ar  
    44    22    45 1   
    45    23    24 ar  
    46    23    46 1   
    47    24    25 1   
    48    25    26 1   
    49    25    47 1   
    50    25    48 1   
    51    26    49 1   
    52    26    50 1   
    53    27    28 1   
    54    27    51 1   
    55    27    52 1   
    56    28    53 1   
@<TRIPOS>SUBSTRUCTURE
     1 S2I         1 TEMP              0 ****  ****    0 ROOT
