@<TRIPOS>MOLECULE
S2K
   40    39     1     0     0
SMALL
bcc


@<TRIPOS>ATOM
      1 C10        -11.5570    11.6210    -0.0020 c3         1 S2K      -0.040400
      2 C01        -14.3060    11.5090     2.0490 c          1 S2K       0.936600
      3 N01         -9.5490    10.5610     0.9190 n8         1 S2K      -0.883800
      4 C02        -13.6840    12.9320     1.8830 c3         1 S2K      -0.018300
      5 N02        -14.4550    13.8810     2.6880 ns         1 S2K      -0.539900
      6 N14        -14.7580    18.1650     6.8380 n8         1 S2K      -0.887800
      7 C03        -14.5970    16.2040     5.3060 c3         1 S2K      -0.077400
      8 C04        -12.1710    13.0420     2.0860 c3         1 S2K      -0.059400
      9 O04        -12.5480     8.8260    -0.2220 o          1 S2K      -0.854800
     10 O05        -10.4060     8.5370    -0.7710 o          1 S2K      -0.854800
     11 C06        -14.3950    14.0490     4.0180 c          1 S2K       0.656100
     12 C07        -15.5060    17.1880     6.0560 c3         1 S2K       0.013500
     13 C08        -16.4310    17.9220     5.0580 c          1 S2K       0.938600
     14 C09        -11.3900    12.9240     0.7750 c3         1 S2K      -0.055400
     15 O09        -15.9230    18.8880     4.4520 o          1 S2K      -0.850800
     16 C11        -10.9720    10.3730     0.6670 c3         1 S2K       0.005500
     17 C12        -11.3350     9.1270    -0.1830 c          1 S2K       0.897600
     18 O03        -17.5850    17.4710     4.9130 o          1 S2K      -0.850800
     19 H1         -12.6140    11.4450    -0.2130 hc         1 S2K       0.030700
     20 H2         -11.0780    11.7450    -0.9820 hc         1 S2K       0.030700
     21 H3          -9.2110     9.7770     1.4630 hn         1 S2K       0.303300
     22 H4          -9.0610    10.4790     0.0340 hn         1 S2K       0.303300
     23 H6         -13.8980    13.2450     0.8570 h1         1 S2K       0.017700
     24 H7         -15.1600    14.4040     2.1960 hn         1 S2K       0.291500
     25 H11        -13.9120    15.7490     6.0270 hc         1 S2K       0.025200
     26 H12        -13.9770    16.7620     4.5960 hc         1 S2K       0.025200
     27 H13        -11.8350    12.2980     2.8070 hc         1 S2K       0.039700
     28 H14        -11.9330    14.0180     2.5160 hc         1 S2K       0.039700
     29 H18        -16.1300    16.6060     6.7440 h1         1 S2K       0.040700
     30 H19        -10.3290    13.0800     0.9840 hc         1 S2K      -0.002300
     31 H20        -11.6920    13.7510     0.1240 hc         1 S2K      -0.002300
     32 H21        -11.4640    10.2580     1.6370 h1         1 S2K       0.096700
     33 O02        -13.7510    10.7040     2.8170 o          1 S2K      -0.830800
     34 H8         -14.0070    17.7030     7.3390 hn         1 S2K       0.314800
     35 O1         -15.3570    11.3220     1.4030 o          1 S2K      -0.830800
     36 O01        -13.6280    13.4370     4.7520 o          1 S2K      -0.642100
     37 C05        -15.3460    15.0930     4.5730 c3         1 S2K      -0.155400
     38 H9         -14.3140    18.8080     6.1940 hn         1 S2K       0.314800
     39 H15        -15.9750    15.5130     3.7870 hc         1 S2K       0.057200
     40 H16        -16.0190    14.5890     5.2740 hc         1 S2K       0.057200
@<TRIPOS>BOND
     1     1    14 1   
     2     1    16 1   
     3     1    19 1   
     4     1    20 1   
     5     2     4 1   
     6     2    33 1   
     7     2    35 1   
     8     3    16 1   
     9     3    21 1   
    10     3    22 1   
    11     4     5 1   
    12     4     8 1   
    13     4    23 1   
    14     5    11 1   
    15     5    24 1   
    16     6    12 1   
    17     6    34 1   
    18     6    38 1   
    19     7    12 1   
    20     7    25 1   
    21     7    26 1   
    22     7    37 1   
    23     8    14 1   
    24     8    27 1   
    25     8    28 1   
    26     9    17 1   
    27    10    17 1   
    28    11    36 2   
    29    11    37 1   
    30    12    13 1   
    31    12    29 1   
    32    13    15 1   
    33    13    18 1   
    34    14    30 1   
    35    14    31 1   
    36    16    17 1   
    37    16    32 1   
    38    37    39 1   
    39    37    40 1   
@<TRIPOS>SUBSTRUCTURE
     1 S2K         1 TEMP              0 ****  ****    0 ROOT
