@<TRIPOS>MOLECULE
S2K
   40    39     1     0     0
SMALL
No Charge or Current Charge


@<TRIPOS>ATOM
      1 C10        -11.4180    11.5400    -0.0010 c3         1 S2K      -0.040400
      2 C01        -14.4730    11.8180     1.4460 c          1 S2K       0.726000
      3 N01         -9.4430    10.4850     1.1800 n8         1 S2K      -0.994200
      4 C02        -13.7760    13.2140     1.6210 c3         1 S2K      -0.018300
      5 N02        -14.5360    14.0580     2.5810 ns         1 S2K      -0.472900
      6 N14        -14.5380    18.1210     6.8450 n8         1 S2K      -0.998200
      7 C03        -14.5910    16.1560     5.3090 c3         1 S2K      -0.077400
      8 C04        -12.2460    13.1630     1.9170 c3         1 S2K      -0.059400
      9 O04        -11.6000     8.0250     0.9700 o          1 S2K      -0.749500
     10 O05        -11.2900     8.8190    -1.0020 o          1 S2K      -0.749500
     11 C06        -14.4880    13.9930     3.9620 c          1 S2K       0.589100
     12 C07        -15.4510    17.1630     6.1220 c3         1 S2K       0.013500
     13 C08        -16.6010    17.8160     5.2390 c          1 S2K       0.728000
     14 C09        -11.3430    12.9370     0.6740 c3         1 S2K      -0.055400
     15 O09        -16.2850    18.5550     4.3140 o          1 S2K      -0.745500
     16 C11        -10.9160    10.3390     0.8580 c3         1 S2K       0.005500
     17 C12        -11.3280     8.9490     0.2150 c          1 S2K       0.687000
     18 O03        -17.7660    17.6220     5.5660 o          1 S2K      -0.745500
     19 H1         -12.4520    11.3520    -0.3090 hc         1 S2K       0.030700
     20 H2         -10.8350    11.5780    -0.9290 hc         1 S2K       0.030700
     21 H3          -9.1490     9.6890     1.7580 hn         1 S2K       0.358500
     22 H4          -8.9030    10.3690     0.3140 hn         1 S2K       0.358500
     23 H6         -13.8820    13.7270     0.6560 h1         1 S2K       0.017700
     24 H7         -15.1600    14.7570     2.1960 hn         1 S2K       0.291500
     25 H11        -13.8250    15.7260     5.9680 hc         1 S2K       0.025200
     26 H12        -14.0570    16.6900     4.5120 hc         1 S2K       0.025200
     27 H13        -12.0230    12.4180     2.6880 hc         1 S2K       0.039700
     28 H14        -11.9540    14.1310     2.3430 hc         1 S2K       0.039700
     29 H18        -15.9600    16.5800     6.9020 h1         1 S2K       0.040700
     30 H19        -10.3040    13.1410     0.9590 hc         1 S2K      -0.002300
     31 H20        -11.5960    13.6950    -0.0770 hc         1 S2K      -0.002300
     32 H21        -11.4670    10.3710     1.8080 h1         1 S2K       0.096700
     33 O02        -14.1650    10.8890     2.1800 o          1 S2K      -0.725500
     34 H8         -13.7560    17.5980     7.2550 hn         1 S2K       0.370000
     35 O1         -15.3270    11.7170     0.5740 o          1 S2K      -0.725500
     36 O01        -13.8040    13.1850     4.5750 o          1 S2K      -0.642100
     37 C05        -15.4020    14.9970     4.6780 c3         1 S2K      -0.155400
     38 H9         -14.0920    18.7340     6.1520 hn         1 S2K       0.370000
     39 H15        -16.1200    15.4180     3.9640 hc         1 S2K       0.057200
     40 H16        -15.9370    14.4720     5.4780 hc         1 S2K       0.057200
@<TRIPOS>BOND
     1     1    14 1   
     2     1    16 1   
     3     1    19 1   
     4     1    20 1   
     5     2     4 1   
     6     2    33 1   
     7     2    35 1   
     8     3    16 1   
     9     3    21 1   
    10     3    22 1   
    11     4     5 1   
    12     4     8 1   
    13     4    23 1   
    14     5    11 1   
    15     5    24 1   
    16     6    12 1   
    17     6    34 1   
    18     6    38 1   
    19     7    12 1   
    20     7    25 1   
    21     7    26 1   
    22     7    37 1   
    23     8    14 1   
    24     8    27 1   
    25     8    28 1   
    26     9    17 1   
    27    10    17 1   
    28    11    36 2   
    29    11    37 1   
    30    12    13 1   
    31    12    29 1   
    32    13    15 1   
    33    13    18 1   
    34    14    30 1   
    35    14    31 1   
    36    16    17 1   
    37    16    32 1   
    38    37    39 1   
    39    37    40 1   
@<TRIPOS>SUBSTRUCTURE
     1 S2K         1 TEMP              0 ****  ****    0 ROOT
