@<TRIPOS>MOLECULE
S2L
   29    30     1     0     0
SMALL
bcc


@<TRIPOS>ATOM
      1 C01          4.7830    -0.2410     0.1940 ca         1 S2L      -0.262000
      2 C02          4.3480     1.0780     0.1220 ca         1 S2L       0.177600
      3 C03          2.9900     1.3690     0.0580 ca         1 S2L      -0.223500
      4 C04          2.0490     0.3360     0.0700 ca         1 S2L       0.026200
      5 C05          2.4820    -0.9880     0.1420 ca         1 S2L      -0.223500
      6 C06          3.8420    -1.2670     0.2020 ca         1 S2L       0.177600
      7 O01          4.2070    -2.5620     0.2680 oh         1 S2L      -0.493600
      8 C07          0.6360     0.7080     0.0040 ce         1 S2L      -0.112200
      9 C08         -0.4030    -0.1360     0.0510 cf         1 S2L      -0.081200
     10 C09         -1.8140     0.2340    -0.0070 ca         1 S2L      -0.082800
     11 C10         -2.2380     1.5690     0.0100 ca         1 S2L      -0.069000
     12 C11         -3.5670     1.9330    -0.0460 ca         1 S2L      -0.227000
     13 C12         -4.5530     0.9490    -0.1190 ca         1 S2L       0.156100
     14 C13         -4.1760    -0.3900    -0.1330 ca         1 S2L      -0.165000
     15 C14         -2.8340    -0.7230    -0.0760 ca         1 S2L       0.078400
     16 CL1         -2.4540    -2.4180    -0.1050 cl         1 S2L      -0.105400
     17 O02         -5.8630     1.2290    -0.1760 oh         1 S2L      -0.486100
     18 O03          5.2920     2.0380     0.1160 oh         1 S2L      -0.493600
     19 H1           5.8450    -0.4570     0.2420 ha         1 S2L       0.147000
     20 H2           2.6570     2.3990    -0.0000 ha         1 S2L       0.141000
     21 H3           1.7790    -1.8110     0.1470 ha         1 S2L       0.141000
     22 H4           5.1670    -2.6430     0.3010 ho         1 S2L       0.428000
     23 H5           0.4620     1.7750    -0.0930 ha         1 S2L       0.119000
     24 H6          -0.2040    -1.1970     0.1400 ha         1 S2L       0.139000
     25 H7          -1.5010     2.3580     0.0730 ha         1 S2L       0.134000
     26 H8          -3.8370     2.9820    -0.0280 ha         1 S2L       0.136000
     27 H9          -4.9320    -1.1630    -0.1880 ha         1 S2L       0.164000
     28 H10         -6.0060     2.1830    -0.1740 ho         1 S2L       0.431000
     29 H11          4.8820     2.9090     0.0720 ho         1 S2L       0.428000
@<TRIPOS>BOND
     1     1     2 ar  
     2     1     6 ar  
     3     1    19 1   
     4     2     3 ar  
     5     2    18 1   
     6     3     4 ar  
     7     3    20 1   
     8     4     5 ar  
     9     4     8 1   
    10     5     6 ar  
    11     5    21 1   
    12     6     7 1   
    13     7    22 1   
    14     8     9 2   
    15     8    23 1   
    16     9    10 1   
    17     9    24 1   
    18    10    11 ar  
    19    10    15 ar  
    20    11    12 ar  
    21    11    25 1   
    22    12    13 ar  
    23    12    26 1   
    24    13    14 ar  
    25    13    17 1   
    26    14    15 ar  
    27    14    27 1   
    28    15    16 1   
    29    17    28 1   
    30    18    29 1   
@<TRIPOS>SUBSTRUCTURE
     1 S2L         1 TEMP              0 ****  ****    0 ROOT
