@<TRIPOS>MOLECULE
S2L
   29    30     1     0     0
SMALL
No Charge or Current Charge


@<TRIPOS>ATOM
      1 C01          4.8510    -0.2690     0.2040 ca         1 S2L      -0.244000
      2 C02          4.4280     1.0630     0.1450 ca         1 S2L       0.177600
      3 C03          3.0600     1.3680     0.0660 ca         1 S2L      -0.205500
      4 C04          2.0980     0.3390     0.0480 ca         1 S2L       0.026200
      5 C05          2.5360    -1.0000     0.1040 ca         1 S2L      -0.205500
      6 C06          3.9030    -1.2990     0.1820 ca         1 S2L       0.177600
      7 O01          4.3060    -2.5980     0.2340 oh         1 S2L      -0.532600
      8 C07          0.6510     0.6950    -0.0380 ce         1 S2L      -0.162200
      9 C08         -0.4450    -0.1100     0.0860 cf         1 S2L      -0.131200
     10 C09         -1.8870     0.2420     0.0100 ca         1 S2L      -0.082800
     11 C10         -2.2920     1.5970     0.0120 ca         1 S2L      -0.051000
     12 C11         -3.6530     1.9420    -0.0550 ca         1 S2L      -0.209000
     13 C12         -4.6300     0.9410    -0.1250 ca         1 S2L       0.156100
     14 C13         -4.2490    -0.4050    -0.1270 ca         1 S2L      -0.147000
     15 C14         -2.8920    -0.7590    -0.0590 ca         1 S2L       0.170000
     16 Cl1         -2.4990    -2.4810    -0.0810 cl         1 S2L      -0.197000
     17 O02         -5.9490     1.2730    -0.1910 oh         1 S2L      -0.525100
     18 O03          5.3530     2.0610     0.1650 oh         1 S2L      -0.532600
     19 H1           5.9130    -0.4930     0.2640 ha         1 S2L       0.129000
     20 H2           2.7390     2.4060     0.0230 ha         1 S2L       0.123000
     21 H3           1.8250    -1.8200     0.0810 ha         1 S2L       0.123000
     22 H4           5.2850    -2.6120     0.2850 ho         1 S2L       0.467000
     23 H5           0.4880     1.7540    -0.2300 ha         1 S2L       0.169000
     24 H6          -0.2500    -1.1620     0.2830 ha         1 S2L       0.189000
     25 H7          -1.5610     2.3970     0.0770 ha         1 S2L       0.116000
     26 H8          -3.9390     2.9910    -0.0500 ha         1 S2L       0.118000
     27 H9          -5.0070    -1.1800    -0.1830 ha         1 S2L       0.146000
     28 H10         -6.0230     2.2510    -0.1790 ho         1 S2L       0.470000
     29 H11          4.8810     2.9190     0.1170 ho         1 S2L       0.467000
@<TRIPOS>BOND
     1     1     2 ar  
     2     1     6 ar  
     3     1    19 1   
     4     2     3 ar  
     5     2    18 1   
     6     3     4 ar  
     7     3    20 1   
     8     4     5 ar  
     9     4     8 1   
    10     5     6 ar  
    11     5    21 1   
    12     6     7 1   
    13     7    22 1   
    14     8     9 2   
    15     8    23 1   
    16     9    10 1   
    17     9    24 1   
    18    10    11 ar  
    19    10    15 ar  
    20    11    12 ar  
    21    11    25 1   
    22    12    13 ar  
    23    12    26 1   
    24    13    14 ar  
    25    13    17 1   
    26    14    15 ar  
    27    14    27 1   
    28    15    16 1   
    29    17    28 1   
    30    18    29 1   
@<TRIPOS>SUBSTRUCTURE
     1 S2L         1 TEMP              0 ****  ****    0 ROOT
