@<TRIPOS>MOLECULE
S2O
   24    24     1     0     0
SMALL
bcc


@<TRIPOS>ATOM
      1 O2          -2.9920    -1.0490    -1.0360 o          1 S2O      -0.616800
      2 S           -2.6210     0.0980    -0.2220 sy         1 S2O       1.268200
      3 O1          -2.9680     1.4320    -0.6880 o          1 S2O      -0.616800
      4 N           -3.2270    -0.2200     1.2880 n8         1 S2O      -0.887700
      5 C2          -0.8820     0.0620     0.0860 ca         1 S2O      -0.274500
      6 C1          -0.2530    -1.1650     0.2440 ca         1 S2O      -0.025000
      7 C3          -0.1650     1.2470     0.1420 ca         1 S2O      -0.025000
      8 C4           1.2030     1.1940     0.3620 ca         1 S2O      -0.148500
      9 C5           1.8610    -0.0230     0.5170 ca         1 S2O      -0.023300
     10 C            1.1130    -1.1980     0.4570 ca         1 S2O      -0.148500
     11 C6           3.3500    -0.0660     0.6880 c3         1 S2O      -0.047100
     12 C7           4.0500     0.0560    -0.6590 c3         1 S2O       0.142400
     13 O            5.4380     0.0090    -0.4420 oh         1 S2O      -0.597800
     14 H1          -3.1840     0.5820     1.9050 hn         1 S2O       0.415300
     15 H2          -4.1820    -0.5580     1.2320 hn         1 S2O       0.415300
     16 H3          -0.8130    -2.0890     0.2000 ha         1 S2O       0.155000
     17 H4          -0.6530     2.2020     0.0130 ha         1 S2O       0.155000
     18 H5           1.7630     2.1190     0.4110 ha         1 S2O       0.138000
     19 H6           1.6050    -2.1550     0.5790 ha         1 S2O       0.138000
     20 H7           3.6780     0.7490     1.3380 hc         1 S2O       0.065700
     21 H8           3.6480    -1.0020     1.1660 hc         1 S2O       0.065700
     22 H9           3.7120    -0.7560    -1.3160 h1         1 S2O       0.022200
     23 H10          3.7440     0.9960    -1.1380 h1         1 S2O       0.022200
     24 H11          5.8730     0.1280    -1.2880 ho         1 S2O       0.408000
@<TRIPOS>BOND
     1     1     2 2   
     2     2     3 2   
     3     2     4 1   
     4     2     5 1   
     5     4    14 1   
     6     4    15 1   
     7     5     6 ar  
     8     5     7 ar  
     9     6    10 ar  
    10     6    16 1   
    11     7     8 ar  
    12     7    17 1   
    13     8     9 ar  
    14     8    18 1   
    15     9    10 ar  
    16     9    11 1   
    17    10    19 1   
    18    11    12 1   
    19    11    20 1   
    20    11    21 1   
    21    12    13 1   
    22    12    22 1   
    23    12    23 1   
    24    13    24 1   
@<TRIPOS>SUBSTRUCTURE
     1 S2O         1 TEMP              0 ****  ****    0 ROOT
