@<TRIPOS>MOLECULE
S2O
   24    24     1     0     0
SMALL
No Charge or Current Charge


@<TRIPOS>ATOM
      1 O2          -3.1670    -1.1510    -0.7290 o          1 S2O      -0.546000
      2 S           -2.6910     0.0940    -0.1300 sy         1 S2O       1.126600
      3 O1          -3.1270     1.4050    -0.6050 o          1 S2O      -0.546000
      4 N           -3.2670     0.0290     1.3950 n8         1 S2O      -0.998100
      5 C2          -0.9110     0.0540     0.1060 ca         1 S2O      -0.274500
      6 C1          -0.2280    -1.1790     0.1410 ca         1 S2O      -0.007000
      7 C3          -0.1900     1.2560     0.2600 ca         1 S2O      -0.007000
      8 C4           1.2040     1.2210     0.4440 ca         1 S2O      -0.130500
      9 C5           1.8890    -0.0070     0.4780 ca         1 S2O      -0.023300
     10 C            1.1660    -1.2050     0.3250 ca         1 S2O      -0.130500
     11 C6           3.3990    -0.0410     0.6730 c3         1 S2O      -0.047100
     12 C7           4.1560     0.0110    -0.6680 c3         1 S2O       0.165600
     13 O            5.5690    -0.0220    -0.4330 oh         1 S2O      -0.660000
     14 H1          -3.8920     0.8310     1.3900 hn         1 S2O       0.470500
     15 H2          -3.9170    -0.7490     1.3130 hn         1 S2O       0.470500
     16 H3          -0.7700    -2.1160     0.0270 ha         1 S2O       0.137000
     17 H4          -0.7030     2.2170     0.2380 ha         1 S2O       0.137000
     18 H5           1.7510     2.1540     0.5590 ha         1 S2O       0.120000
     19 H6           1.6830    -2.1620     0.3480 ha         1 S2O       0.120000
     20 H7           3.7180     0.8030     1.2970 hc         1 S2O       0.065700
     21 H8           3.6900    -0.9490     1.2130 hc         1 S2O       0.065700
     22 H9           3.8520    -0.8440    -1.2870 h1         1 S2O       0.022200
     23 H10          3.8800     0.9300    -1.2030 h1         1 S2O       0.022200
     24 H11          6.0060     0.0130    -1.3140 ho         1 S2O       0.447000
@<TRIPOS>BOND
     1     1     2 2   
     2     2     3 2   
     3     2     4 1   
     4     2     5 1   
     5     4    14 1   
     6     4    15 1   
     7     5     6 ar  
     8     5     7 ar  
     9     6    10 ar  
    10     6    16 1   
    11     7     8 ar  
    12     7    17 1   
    13     8     9 ar  
    14     8    18 1   
    15     9    10 ar  
    16     9    11 1   
    17    10    19 1   
    18    11    12 1   
    19    11    20 1   
    20    11    21 1   
    21    12    13 1   
    22    12    22 1   
    23    12    23 1   
    24    13    24 1   
@<TRIPOS>SUBSTRUCTURE
     1 S2O         1 TEMP              0 ****  ****    0 ROOT
