@<TRIPOS>MOLECULE
S2P
   18    18     1     0     0
SMALL
bcc


@<TRIPOS>ATOM
      1 CD2        102.2560    27.0610    40.3240 cc         1 S2P       0.487300
      2 CG         102.1730    25.9390    41.2360 cc         1 S2P       0.245300
      3 ND1        102.2050    24.8010    40.6060 nd         1 S2P      -0.482100
      4 CB         102.1010    26.0500    42.7210 c3         1 S2P      -0.095700
      5 CA         103.4620    26.4070    43.3410 c3         1 S2P       0.020500
      6 OD2        102.2410    28.3460    40.6640 oh         1 S2P      -0.589300
      7 C          103.3310    26.5850    44.8810 c          1 S2P       0.933600
      8 OXT        104.2540    26.1230    45.5780 o          1 S2P      -0.825800
      9 NE2        102.3490    26.7310    39.0740 nd         1 S2P      -0.569100
     10 N          104.4430    25.3940    43.0000 n8         1 S2P      -0.888800
     11 SE1        102.3350    25.0900    38.9930 ss         1 S2P       0.321200
     12 HB         101.3620    26.8050    43.0020 hc         1 S2P       0.074700
     13 HBA        101.7600    25.0980    43.1270 hc         1 S2P       0.074700
     14 HA         103.7520    27.4040    42.9670 h1         1 S2P      -0.010300
     15 HOD2       102.1270    28.4590    41.6160 ho         1 S2P       0.460000
     16 H          104.8820    25.6080    42.1140 hn         1 S2P       0.335300
     17 H2         105.1680    25.4140    43.7050 hn         1 S2P       0.335300
     18 O          102.3290    27.2110    45.2730 o          1 S2P      -0.825800
@<TRIPOS>BOND
     1     1     2 1   
     2     1     6 1   
     3     1     9 2   
     4     2     3 2   
     5     2     4 1   
     6     3    11 1   
     7     4     5 1   
     8     4    12 1   
     9     4    13 1   
    10     5     7 1   
    11     5    10 1   
    12     5    14 1   
    13     6    15 1   
    14     7     8 1   
    15     7    18 1   
    16     9    11 1   
    17    10    16 1   
    18    10    17 1   
@<TRIPOS>SUBSTRUCTURE
     1 S2P         1 TEMP              0 ****  ****    0 ROOT
