@<TRIPOS>MOLECULE
S2P
   18    18     1     0     0
SMALL
No Charge or Current Charge


@<TRIPOS>ATOM
      1 CD2        102.3690    27.1370    40.3270 cc         1 S2P       0.487300
      2 CG         102.1890    25.9990    41.1740 cc         1 S2P       0.245300
      3 ND1        102.0960    24.8530    40.5320 nd         1 S2P      -0.482100
      4 CB         102.0910    26.0770    42.6840 c3         1 S2P      -0.095700
      5 CA         103.4480    26.3110    43.4100 c3         1 S2P       0.020500
      6 OD2        102.4740    28.4030    40.7830 oh         1 S2P      -0.589300
      7 C          103.2570    26.6950    44.9520 c          1 S2P       0.933600
      8 OXT        104.1050    27.4090    45.4800 o          1 S2P      -0.825800
      9 NE2        102.4230    26.9050    39.0430 nd         1 S2P      -0.569100
     10 N          104.3860    25.1680    43.1130 n8         1 S2P      -0.888800
     11 SE1        102.2450    25.2390    38.9020 ss         1 S2P       0.321200
     12 HB         101.3930    26.8780    42.9570 hc         1 S2P       0.074700
     13 HBA        101.6390    25.1550    43.0700 hc         1 S2P       0.074700
     14 HA         103.9080    27.1890    42.9390 h1         1 S2P      -0.010300
     15 HOD2       102.4260    28.3520    41.7570 ho         1 S2P       0.460000
     16 H          104.4830    25.0500    42.0990 hn         1 S2P       0.335300
     17 H2         105.3290    25.4100    43.4390 hn         1 S2P       0.335300
     18 O          102.2680    26.2950    45.5600 o          1 S2P      -0.825800
@<TRIPOS>BOND
     1     1     2 1   
     2     1     6 1   
     3     1     9 2   
     4     2     3 2   
     5     2     4 1   
     6     3    11 1   
     7     4     5 1   
     8     4    12 1   
     9     4    13 1   
    10     5     7 1   
    11     5    10 1   
    12     5    14 1   
    13     6    15 1   
    14     7     8 1   
    15     7    18 1   
    16     9    11 1   
    17    10    16 1   
    18    10    17 1   
@<TRIPOS>SUBSTRUCTURE
     1 S2P         1 TEMP              0 ****  ****    0 ROOT
