@<TRIPOS>MOLECULE
S2Q
   47    49     1     0     0
SMALL
abcg2


@<TRIPOS>ATOM
      1 C5         -21.0780     8.2680     3.0820 ca         1 S2Q       0.539300
      2 C6         -20.0000     8.7460     2.3380 ca         1 S2Q      -0.304900
      3 C7         -20.2400     9.7600     1.4190 ca         1 S2Q       0.028000
      4 C8         -21.5510    10.2160     1.3150 ca         1 S2Q      -0.242600
      5 C10        -21.9640    11.3240     0.3960 c          1 S2Q       0.617700
      6 C13        -21.4700    12.5530    -1.6750 c3         1 S2Q       0.163000
      7 C15        -20.7910    12.2040    -2.9990 c3         1 S2Q      -0.106100
      8 C17        -19.9100    14.0210    -0.2940 ca         1 S2Q      -0.044000
      9 C20        -20.0840    16.4260    -0.3360 ca         1 S2Q      -0.013000
     10 C22        -16.4750     7.3480     3.2620 c3         1 S2Q      -0.086100
     11 O1         -20.6610     7.3060     3.9260 os         1 S2Q      -0.236300
     12 N2         -19.2580     7.1440     3.7320 nc         1 S2Q      -0.270700
     13 C3         -18.8780     7.9810     2.8110 cd         1 S2Q       0.404900
     14 N4         -22.3330     8.6710     3.0170 nb         1 S2Q      -0.653000
     15 C9         -22.5460     9.6470     2.1330 ca         1 S2Q       0.432900
     16 N11        -21.2290    11.4790    -0.7220 ns         1 S2Q      -0.507900
     17 O12        -22.9280    12.0430     0.6620 o          1 S2Q      -0.589100
     18 C14        -20.9970    13.9020    -1.1600 ca         1 S2Q      -0.115300
     19 C16        -19.4600    15.2700     0.1170 ca         1 S2Q      -0.129000
     20 C18        -21.6310    15.0550    -1.6070 ca         1 S2Q       0.010000
     21 C19        -21.1670    16.3010    -1.1970 ca         1 S2Q      -0.271500
     22 C23        -17.3570     7.5380     0.8950 c3         1 S2Q      -0.086100
     23 S24        -21.9700    17.7560    -1.8130 sy         1 S2Q       1.155600
     24 O25        -22.2910    17.5730    -3.2120 o          1 S2Q      -0.554500
     25 O26        -21.1610    18.8950    -1.4390 o          1 S2Q      -0.554500
     26 N27        -23.4120    17.7350    -1.0190 n8         1 S2Q      -1.016100
     27 H28        -19.4340    10.1850     0.8350 ha         1 S2Q       0.124000
     28 H31        -22.5480    12.6170    -1.8350 h1         1 S2Q       0.081700
     29 H34        -21.1750    11.2590    -3.3860 hc         1 S2Q       0.049700
     30 H32        -20.9840    12.9870    -3.7320 hc         1 S2Q       0.049700
     31 H33        -19.7100    12.1200    -2.8640 hc         1 S2Q       0.049700
     32 H36        -19.4160    13.1290     0.0670 ha         1 S2Q       0.110000
     33 H38        -19.7420    17.4030    -0.0280 ha         1 S2Q       0.140000
     34 H39        -17.2090     9.1310     2.3200 hc         1 S2Q       0.059700
     35 H41        -16.5360     7.7300     4.2820 hc         1 S2Q       0.045033
     36 H42        -16.6730     6.2750     3.2870 hc         1 S2Q       0.045033
     37 H40        -15.4590     7.4980     2.8970 hc         1 S2Q       0.045033
     38 H29        -23.5610    10.0140     2.0500 h4         1 S2Q       0.054100
     39 H30        -20.4840    10.8320    -0.9210 hn         1 S2Q       0.314500
     40 H35        -18.6170    15.3450     0.7920 ha         1 S2Q       0.120000
     41 H37        -22.4800    14.9840    -2.2750 ha         1 S2Q       0.134000
     42 H45        -16.3370     7.6660     0.5300 hc         1 S2Q       0.045033
     43 H43        -17.6040     6.4740     0.8620 hc         1 S2Q       0.045033
     44 H44        -18.0310     8.0690     0.2230 hc         1 S2Q       0.045033
     45 H46        -23.3430    18.0970    -0.0720 hn         1 S2Q       0.479500
     46 H47        -24.1320    18.2110    -1.5550 hn         1 S2Q       0.479500
     47 C21        -17.4570     8.0650     2.3370 c3         1 S2Q      -0.085000
@<TRIPOS>BOND
     1     1     2 ar  
     2     1    11 1   
     3     1    14 ar  
     4     2     3 ar  
     5     2    13 1   
     6     3     4 ar  
     7     3    27 1   
     8     4     5 1   
     9     4    15 ar  
    10     5    16 1   
    11     5    17 2   
    12     6     7 1   
    13     6    16 1   
    14     6    18 1   
    15     6    28 1   
    16     7    29 1   
    17     7    30 1   
    18     7    31 1   
    19     8    18 ar  
    20     8    19 ar  
    21     8    32 1   
    22     9    19 ar  
    23     9    21 ar  
    24     9    33 1   
    25    10    35 1   
    26    10    36 1   
    27    10    37 1   
    28    10    47 1   
    29    11    12 1   
    30    12    13 2   
    31    13    47 1   
    32    14    15 ar  
    33    15    38 1   
    34    16    39 1   
    35    18    20 ar  
    36    19    40 1   
    37    20    21 ar  
    38    20    41 1   
    39    21    23 1   
    40    22    42 1   
    41    22    43 1   
    42    22    44 1   
    43    22    47 1   
    44    23    24 2   
    45    23    25 2   
    46    23    26 1   
    47    26    45 1   
    48    26    46 1   
    49    34    47 1   
@<TRIPOS>SUBSTRUCTURE
     1 S2Q         1 TEMP              0 ****  ****    0 ROOT
