@<TRIPOS>MOLECULE
S2Q
   47    49     1     0     0
SMALL
No Charge or Current Charge


@<TRIPOS>ATOM
      1 C5         -21.3020     7.4670     2.0200 ca         1 S2Q       0.539300
      2 C6         -20.4010     8.4490     1.7710 ca         1 S2Q      -0.304900
      3 C7         -20.6720     9.4910     0.8790 ca         1 S2Q       0.028000
      4 C8         -21.9430     9.4530     0.2570 ca         1 S2Q      -0.242600
      5 C10        -22.4050    10.4840    -0.7260 c          1 S2Q       0.617700
      6 C13        -21.7770    12.5960    -1.9430 c3         1 S2Q       0.163000
      7 C15        -21.6180    12.1270    -3.4050 c3         1 S2Q      -0.106100
      8 C17        -19.4750    13.6910    -1.7720 ca         1 S2Q      -0.044000
      9 C20        -19.2160    15.9800    -0.9810 ca         1 S2Q      -0.013000
     10 C22        -17.7230     9.4770     4.1050 c3         1 S2Q      -0.086100
     11 O1         -20.8060     6.5660     2.9250 os         1 S2Q      -0.236300
     12 N2         -19.4560     7.0250     3.2830 nc         1 S2Q      -0.270700
     13 C3         -19.2530     8.1440     2.5780 cd         1 S2Q       0.404900
     14 N4         -22.5140     7.3970     1.4510 nb         1 S2Q      -0.653000
     15 C9         -22.8200     8.3890     0.5760 ca         1 S2Q       0.432900
     16 N11        -21.5240    11.5040    -1.0060 ns         1 S2Q      -0.507900
     17 O12        -23.5070    10.4290    -1.2500 o          1 S2Q      -0.589100
     18 C14        -20.8740    13.7810    -1.6130 ca         1 S2Q      -0.115300
     19 C16        -18.6530    14.7850    -1.4570 ca         1 S2Q      -0.129000
     20 C18        -21.4370    14.9810    -1.1300 ca         1 S2Q       0.010000
     21 C19        -20.6120    16.0810    -0.8170 ca         1 S2Q      -0.271500
     22 C23        -16.7450     8.0950     2.1830 c3         1 S2Q      -0.086100
     23 S24        -21.3410    17.6040    -0.2060 sy         1 S2Q       1.155600
     24 O25        -22.7570    17.6860    -0.5570 o          1 S2Q      -0.554500
     25 O26        -20.4270    18.7310    -0.3800 o          1 S2Q      -0.554500
     26 N27        -21.3640    17.3830     1.4060 n8         1 S2Q      -1.016100
     27 H28        -19.9400    10.2720     0.6880 ha         1 S2Q       0.124000
     28 H31        -22.8210    12.9130    -1.8130 h1         1 S2Q       0.081700
     29 H34        -22.3460    11.3430    -3.6420 hc         1 S2Q       0.049700
     30 H32        -21.7850    12.9630    -4.0930 hc         1 S2Q       0.049700
     31 H33        -20.6150    11.7250    -3.5870 hc         1 S2Q       0.049700
     32 H36        -19.0200    12.7720    -2.1360 ha         1 S2Q       0.110000
     33 H38        -18.5660    16.8200    -0.7390 ha         1 S2Q       0.140000
     34 H39        -18.0310     9.7910     2.0160 hc         1 S2Q       0.059700
     35 H41        -18.5720    10.0930     4.4220 hc         1 S2Q       0.045033
     36 H42        -17.5990     8.6630     4.8300 hc         1 S2Q       0.045033
     37 H40        -16.8210    10.1000     4.1350 hc         1 S2Q       0.045033
     38 H29        -23.8080     8.3210     0.1200 h4         1 S2Q       0.054100
     39 H30        -20.6380    11.4950    -0.5200 hn         1 S2Q       0.314500
     40 H35        -17.5750    14.7070    -1.5820 ha         1 S2Q       0.120000
     41 H37        -22.5150    15.0550    -0.9980 ha         1 S2Q       0.134000
     42 H45        -15.8320     8.7020     2.1910 hc         1 S2Q       0.045033
     43 H43        -16.5780     7.2180     2.8210 hc         1 S2Q       0.045033
     44 H44        -16.9110     7.7460     1.1570 hc         1 S2Q       0.045033
     45 H46        -20.8880    18.2300     1.7060 hn         1 S2Q       0.479500
     46 H47        -22.3370    17.6060     1.6000 hn         1 S2Q       0.479500
     47 C21        -17.9560     8.9210     2.6790 c3         1 S2Q      -0.085000
@<TRIPOS>BOND
     1     1     2 ar  
     2     1    11 1   
     3     1    14 ar  
     4     2     3 ar  
     5     2    13 1   
     6     3     4 ar  
     7     3    27 1   
     8     4     5 1   
     9     4    15 ar  
    10     5    16 1   
    11     5    17 2   
    12     6     7 1   
    13     6    16 1   
    14     6    18 1   
    15     6    28 1   
    16     7    29 1   
    17     7    30 1   
    18     7    31 1   
    19     8    18 ar  
    20     8    19 ar  
    21     8    32 1   
    22     9    19 ar  
    23     9    21 ar  
    24     9    33 1   
    25    10    35 1   
    26    10    36 1   
    27    10    37 1   
    28    10    47 1   
    29    11    12 1   
    30    12    13 2   
    31    13    47 1   
    32    14    15 ar  
    33    15    38 1   
    34    16    39 1   
    35    18    20 ar  
    36    19    40 1   
    37    20    21 ar  
    38    20    41 1   
    39    21    23 1   
    40    22    42 1   
    41    22    43 1   
    42    22    44 1   
    43    22    47 1   
    44    23    24 2   
    45    23    25 2   
    46    23    26 1   
    47    26    45 1   
    48    26    46 1   
    49    34    47 1   
@<TRIPOS>SUBSTRUCTURE
     1 S2Q         1 TEMP              0 ****  ****    0 ROOT
