@<TRIPOS>MOLECULE
S2R
   46    49     1     0     0
SMALL
No Charge or Current Charge


@<TRIPOS>ATOM
      1 C02        -44.1880   -31.1070     3.2900 c          1 S2R       0.718000
      2 C03        -44.1880   -30.1300     2.0800 c5         1 S2R      -0.201700
      3 C04        -43.3140   -28.8440     2.3680 c5         1 S2R      -0.026100
      4 C05        -43.9560   -27.8750     1.4100 ca         1 S2R      -0.067300
      5 C06        -45.2140   -28.2860     1.0100 ca         1 S2R      -0.095300
      6 C07        -45.6210   -29.5990     1.6370 c5         1 S2R       0.168000
      7 C09        -47.7650   -29.3190     2.7910 c          1 S2R       0.605700
      8 C10        -48.5050   -29.2300     4.1110 ca         1 S2R      -0.148600
      9 C11        -49.9150   -29.1450     4.1090 ca         1 S2R      -0.041000
     10 C12        -50.6370   -29.0590     5.3120 ca         1 S2R      -0.166500
     11 C13        -49.9660   -29.0550     6.5510 ca         1 S2R      -0.024000
     12 C15        -51.9660   -28.8560     8.1560 c          1 S2R       0.635100
     13 C16        -52.1920   -28.8090     9.6520 cx         1 S2R      -0.244700
     14 C17        -51.8000   -30.0110    10.4900 cx         1 S2R      -0.099400
     15 C18        -53.2590   -29.6970    10.2630 cx         1 S2R      -0.099400
     16 C20        -48.5640   -29.1390     6.5580 ca         1 S2R      -0.166500
     17 C21        -47.8360   -29.2250     5.3580 ca         1 S2R      -0.041000
     18 C23        -45.9720   -27.5100     0.1160 ca         1 S2R      -0.080000
     19 C24        -45.4330   -26.3020    -0.3670 ca         1 S2R      -0.139000
     20 C25        -44.1510   -25.8830     0.0460 ca         1 S2R      -0.123000
     21 C26        -43.4040   -26.6720     0.9410 ca         1 S2R      -0.122000
     22 N08        -46.3950   -29.4460     2.8660 ns         1 S2R      -0.482900
     23 N14        -50.6280   -28.9720     7.8070 ns         1 S2R      -0.139000
     24 O01        -43.8090   -32.2530     3.1080 o          1 S2R      -0.725500
     25 O19        -52.8990   -28.7820     7.3650 o          1 S2R      -0.595100
     26 O22        -48.3550   -29.2820     1.7180 o          1 S2R      -0.666100
     27 O27        -44.5180   -30.7060     4.3980 o          1 S2R      -0.725500
     28 H031       -43.7660   -30.6680     1.2230 hc         1 S2R       0.052700
     29 H042       -42.2500   -29.0110     2.1670 hc         1 S2R       0.056200
     30 H041       -43.4070   -28.4920     3.4020 hc         1 S2R       0.056200
     31 H071       -46.0970   -30.2780     0.9150 h1         1 S2R       0.065700
     32 H111       -50.4620   -29.1460     3.1680 ha         1 S2R       0.136500
     33 H121       -51.7190   -28.9980     5.2540 ha         1 S2R       0.122000
     34 H161       -52.0550   -27.8300    10.1020 hc         1 S2R       0.083700
     35 H172       -51.3890   -30.8840     9.9860 hc         1 S2R       0.080200
     36 H171       -51.3910   -29.8280    11.4820 hc         1 S2R       0.080200
     37 H182       -53.8290   -29.3030    11.1020 hc         1 S2R       0.080200
     38 H181       -53.8210   -30.3570     9.6050 hc         1 S2R       0.080200
     39 H201       -48.0250   -29.1370     7.5040 ha         1 S2R       0.122000
     40 H211       -46.7520   -29.2830     5.4220 ha         1 S2R       0.136500
     41 H231       -46.9620   -27.8370    -0.1970 ha         1 S2R       0.129000
     42 H241       -46.0080   -25.6900    -1.0580 ha         1 S2R       0.095000
     43 H251       -43.7380   -24.9490    -0.3280 ha         1 S2R       0.091000
     44 H261       -42.4150   -26.3550     1.2640 ha         1 S2R       0.100000
     45 H081       -45.9770   -29.5680     3.7830 hn         1 S2R       0.379500
     46 H141       -50.0020   -29.0090     8.6010 hn         1 S2R       0.145000
@<TRIPOS>BOND
     1     1     2 1   
     2     1    24 1   
     3     1    27 1   
     4     2     3 1   
     5     2     6 1   
     6     2    28 1   
     7     3     4 1   
     8     3    29 1   
     9     3    30 1   
    10     4     5 ar  
    11     4    21 ar  
    12     5     6 1   
    13     5    18 ar  
    14     6    22 1   
    15     6    31 1   
    16     7     8 1   
    17     7    22 1   
    18     7    26 2   
    19     8     9 ar  
    20     8    17 ar  
    21     9    10 ar  
    22     9    32 1   
    23    10    11 ar  
    24    10    33 1   
    25    11    16 ar  
    26    11    23 1   
    27    12    13 1   
    28    12    23 1   
    29    12    25 2   
    30    13    14 1   
    31    13    15 1   
    32    13    34 1   
    33    14    15 1   
    34    14    35 1   
    35    14    36 1   
    36    15    37 1   
    37    15    38 1   
    38    16    17 ar  
    39    16    39 1   
    40    17    40 1   
    41    18    19 ar  
    42    18    41 1   
    43    19    20 ar  
    44    19    42 1   
    45    20    21 ar  
    46    20    43 1   
    47    21    44 1   
    48    22    45 1   
    49    23    46 1   
@<TRIPOS>SUBSTRUCTURE
     1 S2R         1 TEMP              0 ****  ****    0 ROOT
