@<TRIPOS>MOLECULE
S2R
   46    49     1     0     0
SMALL
abcg2


@<TRIPOS>ATOM
      1 C02        -44.0080   -31.0840     3.1730 c          1 S2R       0.718000
      2 C03        -44.1030   -30.0900     2.0000 c5         1 S2R      -0.201700
      3 C04        -43.2730   -28.8030     2.2100 c5         1 S2R      -0.026100
      4 C05        -43.9830   -27.7870     1.3560 ca         1 S2R      -0.067300
      5 C06        -45.2640   -28.2310     1.0250 ca         1 S2R      -0.095300
      6 C07        -45.5380   -29.5830     1.6580 c5         1 S2R       0.168000
      7 C09        -47.6850   -29.3730     2.8490 c          1 S2R       0.605700
      8 C10        -48.3610   -29.3220     4.1830 ca         1 S2R      -0.148600
      9 C11        -49.7220   -29.6150     4.2570 ca         1 S2R      -0.041000
     10 C12        -50.4110   -29.5870     5.4600 ca         1 S2R      -0.166500
     11 C13        -49.7350   -29.2440     6.6370 ca         1 S2R      -0.024000
     12 C15        -51.6380   -29.4220     8.2540 c          1 S2R       0.635100
     13 C16        -51.9040   -29.2360     9.7050 cx         1 S2R      -0.244700
     14 C17        -52.9440   -30.1280    10.3520 cx         1 S2R      -0.099400
     15 C18        -53.2610   -28.6940    10.1090 cx         1 S2R      -0.099400
     16 C20        -48.3700   -28.9350     6.5690 ca         1 S2R      -0.166500
     17 C21        -47.6950   -28.9760     5.3630 ca         1 S2R      -0.041000
     18 C23        -46.1070   -27.4520     0.2450 ca         1 S2R      -0.080000
     19 C24        -45.6540   -26.2120    -0.2070 ca         1 S2R      -0.139000
     20 C25        -44.3770   -25.7650     0.1240 ca         1 S2R      -0.123000
     21 C26        -43.5330   -26.5510     0.9090 ca         1 S2R      -0.122000
     22 N08        -46.3460   -29.4560     2.8690 ns         1 S2R      -0.482900
     23 N14        -50.3400   -29.1790     7.8970 ns         1 S2R      -0.139000
     24 O01        -43.5810   -32.2350     2.9300 o          1 S2R      -0.725500
     25 O19        -52.5100   -29.7610     7.4590 o          1 S2R      -0.595100
     26 O22        -48.3390   -29.3400     1.7970 o          1 S2R      -0.666100
     27 O27        -44.3650   -30.6530     4.3100 o          1 S2R      -0.725500
     28 H031       -43.7370   -30.5890     1.1030 hc         1 S2R       0.052700
     29 H042       -42.2270   -28.9400     1.9310 hc         1 S2R       0.056200
     30 H041       -43.2970   -28.5030     3.2610 hc         1 S2R       0.056200
     31 H071       -46.0480   -30.2620     0.9740 h1         1 S2R       0.065700
     32 H111       -50.2480   -29.8760     3.3490 ha         1 S2R       0.136500
     33 H121       -51.4590   -29.8270     5.4950 ha         1 S2R       0.122000
     34 H161       -51.0600   -28.9440    10.3150 hc         1 S2R       0.083700
     35 H172       -53.4090   -30.8620     9.7080 hc         1 S2R       0.080200
     36 H171       -52.7400   -30.4530    11.3630 hc         1 S2R       0.080200
     37 H182       -53.2780   -28.0150    10.9500 hc         1 S2R       0.080200
     38 H181       -53.9410   -28.4590     9.3030 hc         1 S2R       0.080200
     39 H201       -47.8420   -28.6550     7.4730 ha         1 S2R       0.122000
     40 H211       -46.6460   -28.7140     5.3510 ha         1 S2R       0.136500
     41 H231       -47.1000   -27.8010    -0.0050 ha         1 S2R       0.129000
     42 H241       -46.2970   -25.5960    -0.8230 ha         1 S2R       0.095000
     43 H251       -44.0340   -24.8020    -0.2360 ha         1 S2R       0.091000
     44 H261       -42.5380   -26.2020     1.1590 ha         1 S2R       0.100000
     45 H081       -45.8440   -29.6910     3.7250 hn         1 S2R       0.379500
     46 H141       -49.7240   -28.9120     8.6510 hn         1 S2R       0.145000
@<TRIPOS>BOND
     1     1     2 1   
     2     1    24 1   
     3     1    27 1   
     4     2     3 1   
     5     2     6 1   
     6     2    28 1   
     7     3     4 1   
     8     3    29 1   
     9     3    30 1   
    10     4     5 ar  
    11     4    21 ar  
    12     5     6 1   
    13     5    18 ar  
    14     6    22 1   
    15     6    31 1   
    16     7     8 1   
    17     7    22 1   
    18     7    26 2   
    19     8     9 ar  
    20     8    17 ar  
    21     9    10 ar  
    22     9    32 1   
    23    10    11 ar  
    24    10    33 1   
    25    11    16 ar  
    26    11    23 1   
    27    12    13 1   
    28    12    23 1   
    29    12    25 2   
    30    13    14 1   
    31    13    15 1   
    32    13    34 1   
    33    14    15 1   
    34    14    35 1   
    35    14    36 1   
    36    15    37 1   
    37    15    38 1   
    38    16    17 ar  
    39    16    39 1   
    40    17    40 1   
    41    18    19 ar  
    42    18    41 1   
    43    19    20 ar  
    44    19    42 1   
    45    20    21 ar  
    46    20    43 1   
    47    21    44 1   
    48    22    45 1   
    49    23    46 1   
@<TRIPOS>SUBSTRUCTURE
     1 S2R         1 TEMP              0 ****  ****    0 ROOT
