@<TRIPOS>MOLECULE
S2S
   24    24     1     0     0
SMALL
No Charge or Current Charge


@<TRIPOS>ATOM
      1 N1          13.2060    22.0180     2.5760 nu         1 S2S      -0.902100
      2 C4          11.3150    25.1300     3.2020 ca         1 S2S      -0.037500
      3 C5           9.9840    24.7420     2.9240 ca         1 S2S      -0.176600
      4 C6           9.7420    23.4080     2.5270 ca         1 S2S      -0.037500
      5 C7          10.8000    22.4900     2.4070 ca         1 S2S      -0.169500
      6 C8           8.8230    25.7050     3.0430 c          1 S2S       0.620700
      7 C1          12.9910    21.1460    -0.0000 c3         1 S2S      -0.377100
      8 C2          12.1230    22.8840     2.6770 ca         1 S2S       0.317000
      9 C3          12.3670    24.2050     3.0790 ca         1 S2S      -0.169500
     10 N2           9.0790    26.9750     3.4250 nt         1 S2S      -0.602000
     11 O1          12.3790    19.6900     2.1390 o          1 S2S      -0.523000
     12 O2          14.8080    20.3280     1.7370 o          1 S2S      -0.523000
     13 O3           7.6710    25.3800     2.8080 o          1 S2S      -0.603100
     14 S1          13.3810    20.6450     1.6620 s6         1 S2S       1.210100
     15 H1          14.1340    22.4090     2.6600 hn         1 S2S       0.504000
     16 H2          11.5530    26.1440     3.5140 ha         1 S2S       0.128000
     17 H3           8.7290    23.0750     2.3110 ha         1 S2S       0.128000
     18 H4          10.5710    21.4730     2.1100 ha         1 S2S       0.132500
     19 H5          13.1280    20.2710    -0.6440 h1         1 S2S       0.106700
     20 H6          11.9520    21.4880    -0.0120 h1         1 S2S       0.106700
     21 H7          13.6800    21.9510    -0.2730 h1         1 S2S       0.106700
     22 H8          13.3810    24.5250     3.3000 ha         1 S2S       0.132500
     23 H9           8.3120    27.6250     3.5080 hn         1 S2S       0.313500
     24 H10         10.0220    27.2680     3.6250 hn         1 S2S       0.313500
@<TRIPOS>BOND
     1     1     8 1   
     2     1    14 1   
     3     1    15 1   
     4     2     3 ar  
     5     2     9 ar  
     6     2    16 1   
     7     3     4 ar  
     8     3     6 1   
     9     4     5 ar  
    10     4    17 1   
    11     5     8 ar  
    12     5    18 1   
    13     6    10 1   
    14     6    13 2   
    15     7    14 1   
    16     7    19 1   
    17     7    20 1   
    18     7    21 1   
    19     8     9 ar  
    20     9    22 1   
    21    10    23 1   
    22    10    24 1   
    23    11    14 2   
    24    12    14 2   
@<TRIPOS>SUBSTRUCTURE
     1 S2S         1 TEMP              0 ****  ****    0 ROOT
