@<TRIPOS>MOLECULE
S2S
   24    24     1     0     0
SMALL
abcg2


@<TRIPOS>ATOM
      1 N1          13.2270    22.0510     2.6030 nu         1 S2S      -0.902100
      2 C4          11.3460    25.1640     3.0480 ca         1 S2S      -0.037500
      3 C5          10.0240    24.7620     2.8550 ca         1 S2S      -0.176600
      4 C6           9.7850    23.4260     2.5520 ca         1 S2S      -0.037500
      5 C7          10.8140    22.5040     2.4680 ca         1 S2S      -0.169500
      6 C8           8.8610    25.6950     2.9280 c          1 S2S       0.620700
      7 C1          12.9880    21.1560     0.0300 c3         1 S2S      -0.377100
      8 C2          12.1320    22.9170     2.6610 ca         1 S2S       0.317000
      9 C3          12.3850    24.2610     2.9450 ca         1 S2S      -0.169500
     10 N2           9.0650    26.8610     3.5620 nt         1 S2S      -0.602000
     11 O1          12.2630    19.7570     2.1310 o          1 S2S      -0.523000
     12 O2          14.7030    20.2330     1.8130 o          1 S2S      -0.523000
     13 O3           7.7850    25.3990     2.4260 o          1 S2S      -0.603100
     14 S1          13.3190    20.6580     1.7010 s6         1 S2S       1.210100
     15 H1          14.1350    22.4850     2.7240 hn         1 S2S       0.504000
     16 H2          11.5960    26.1970     3.2530 ha         1 S2S       0.128000
     17 H3           8.7710    23.0850     2.3920 ha         1 S2S       0.128000
     18 H4          10.5690    21.4720     2.2650 ha         1 S2S       0.132500
     19 H5          13.0480    20.2670    -0.5960 h1         1 S2S       0.106700
     20 H6          11.9920    21.5880    -0.0400 h1         1 S2S       0.106700
     21 H7          13.7340    21.8850    -0.2760 h1         1 S2S       0.106700
     22 H8          13.4030    24.6020     3.0830 ha         1 S2S       0.132500
     23 H9           8.2970    27.5030     3.6710 hn         1 S2S       0.313500
     24 H10          9.8900    27.0490     4.1030 hn         1 S2S       0.313500
@<TRIPOS>BOND
     1     1     8 1   
     2     1    14 1   
     3     1    15 1   
     4     2     3 ar  
     5     2     9 ar  
     6     2    16 1   
     7     3     4 ar  
     8     3     6 1   
     9     4     5 ar  
    10     4    17 1   
    11     5     8 ar  
    12     5    18 1   
    13     6    10 1   
    14     6    13 2   
    15     7    14 1   
    16     7    19 1   
    17     7    20 1   
    18     7    21 1   
    19     8     9 ar  
    20     9    22 1   
    21    10    23 1   
    22    10    24 1   
    23    11    14 2   
    24    12    14 2   
@<TRIPOS>SUBSTRUCTURE
     1 S2S         1 TEMP              0 ****  ****    0 ROOT
