@<TRIPOS>MOLECULE
S2T
   23    23     1     0     0
SMALL
bcc


@<TRIPOS>ATOM
      1 C10          2.8440     0.3260     0.6630 c          1 S2T       0.661100
      2 C01         -3.0880     0.5620     0.4750 ca         1 S2T      -0.140000
      3 C02         -3.1550     1.7740    -0.1910 ca         1 S2T      -0.149000
      4 C03         -2.0040     2.3230    -0.7400 ca         1 S2T      -0.146000
      5 C04         -0.7960     1.6580    -0.6160 ca         1 S2T      -0.097000
      6 C05         -0.6970     0.4400     0.0580 ca         1 S2T      -0.007300
      7 C06         -1.8680    -0.0910     0.5910 ca         1 S2T       0.043400
      8 C07          0.6310    -0.2580     0.1290 c3         1 S2T       0.024400
      9 O08          1.5930     0.7320     0.4810 os         1 S2T      -0.418900
     10 C09          0.9250    -0.8870    -1.2650 c          1 S2T       0.937600
     11 O11          3.1680    -0.8350     0.7160 o          1 S2T      -0.544000
     12 C12          3.7850     1.4850     0.7990 c3         1 S2T      -0.156100
     13 CL          -1.8520    -1.6040     1.4470 cl         1 S2T      -0.128400
     14 O14          0.2620    -1.9070    -1.5060 o          1 S2T      -0.806300
     15 O15          1.7380    -0.2930    -1.9870 o          1 S2T      -0.806300
     16 H3          -2.0480     3.2670    -1.2680 ha         1 S2T       0.115000
     17 H4           0.0940     2.0870    -1.0580 ha         1 S2T       0.155000
     18 H5           0.6150    -1.0450     0.8840 h1         1 S2T       0.069700
     19 H6           4.7320     1.1600     1.2210 hc         1 S2T       0.052033
     20 H7           3.9740     1.9090    -0.1890 hc         1 S2T       0.052033
     21 H8           3.3640     2.2760     1.4170 hc         1 S2T       0.052033
     22 H1          -3.9790     0.1250     0.9050 ha         1 S2T       0.125000
     23 H2          -4.1060     2.2830    -0.2820 ha         1 S2T       0.111000
@<TRIPOS>BOND
     1     1     9 1   
     2     1    11 2   
     3     1    12 1   
     4     2     3 ar  
     5     2     7 ar  
     6     2    22 1   
     7     3     4 ar  
     8     3    23 1   
     9     4     5 ar  
    10     4    16 1   
    11     5     6 ar  
    12     5    17 1   
    13     6     7 ar  
    14     6     8 1   
    15     7    13 1   
    16     8     9 1   
    17     8    10 1   
    18     8    18 1   
    19    10    14 1   
    20    10    15 1   
    21    12    19 1   
    22    12    20 1   
    23    12    21 1   
@<TRIPOS>SUBSTRUCTURE
     1 S2T         1 TEMP              0 ****  ****    0 ROOT
