@<TRIPOS>MOLECULE
S2T
   23    23     1     0     0
SMALL
No Charge or Current Charge


@<TRIPOS>ATOM
      1 C10          2.9240     0.3130     0.6460 c          1 S2T       0.612100
      2 C01         -3.0830     0.6190     0.5820 ca         1 S2T      -0.122000
      3 C02         -3.2020     1.8070    -0.1550 ca         1 S2T      -0.131000
      4 C03         -2.0860     2.3230    -0.8310 ca         1 S2T      -0.128000
      5 C04         -0.8530     1.6510    -0.7680 ca         1 S2T      -0.079000
      6 C05         -0.7180     0.4570    -0.0260 ca         1 S2T      -0.007300
      7 C06         -1.8520    -0.0580     0.6490 ca         1 S2T       0.135000
      8 C07          0.6440    -0.2470     0.0080 c3         1 S2T       0.047600
      9 O08          1.6550     0.7450     0.3550 os         1 S2T      -0.442100
     10 C09          0.9080    -0.9630    -1.3600 c          1 S2T       0.727000
     11 O11          3.2570    -0.8610     0.7380 o          1 S2T      -0.495000
     12 C12          3.8540     1.4800     0.9600 c3         1 S2T      -0.156100
     13 Cl          -1.7840    -1.5510     1.5900 cl         1 S2T      -0.220000
     14 O14          0.2570    -1.9690    -1.6130 o          1 S2T      -0.701000
     15 O15          1.7260    -0.4880    -2.1400 o          1 S2T      -0.701000
     16 H3          -2.1750     3.2420    -1.4050 ha         1 S2T       0.097000
     17 H4           0.0040     2.0610    -1.2980 ha         1 S2T       0.137000
     18 H5           0.6360    -1.0330     0.7700 h1         1 S2T       0.069700
     19 H6           4.8560     1.1540     1.2590 hc         1 S2T       0.052033
     20 H7           3.8830     2.1510     0.0940 hc         1 S2T       0.052033
     21 H8           3.3870     2.1100     1.7250 hc         1 S2T       0.052033
     22 H1          -3.9490     0.2180     1.1040 ha         1 S2T       0.107000
     23 H2          -4.1570     2.3260    -0.2030 ha         1 S2T       0.093000
@<TRIPOS>BOND
     1     1     9 1   
     2     1    11 2   
     3     1    12 1   
     4     2     3 ar  
     5     2     7 ar  
     6     2    22 1   
     7     3     4 ar  
     8     3    23 1   
     9     4     5 ar  
    10     4    16 1   
    11     5     6 ar  
    12     5    17 1   
    13     6     7 ar  
    14     6     8 1   
    15     7    13 1   
    16     8     9 1   
    17     8    10 1   
    18     8    18 1   
    19    10    14 1   
    20    10    15 1   
    21    12    19 1   
    22    12    20 1   
    23    12    21 1   
@<TRIPOS>SUBSTRUCTURE
     1 S2T         1 TEMP              0 ****  ****    0 ROOT
