@<TRIPOS>MOLECULE
S2U
   52    54     1     0     0
SMALL
No Charge or Current Charge


@<TRIPOS>ATOM
      1 C11        -17.6590   -20.6240    -2.6640 ca         1 S2U      -0.025000
      2 C10        -18.1040   -21.9500    -2.5510 ca         1 S2U      -0.159000
      3 C14        -15.2080   -18.8730    -0.2010 c3         1 S2U       0.111000
      4 C15        -15.4330   -17.6980     0.7950 c3         1 S2U      -0.095100
      5 C22        -20.4690   -22.0910     3.8290 c3         1 S2U       0.147900
      6 C04        -19.8080   -17.5400    -7.1150 cc         1 S2U      -0.287900
      7 C05        -19.2050   -18.1240    -6.0230 cd         1 S2U      -0.097000
      8 C06        -19.5710   -19.4880    -5.7850 cd         1 S2U      -0.064000
      9 C07        -19.0650   -20.3310    -4.6680 ca         1 S2U       0.017000
     10 C08        -19.5000   -21.6680    -4.5200 ca         1 S2U      -0.126000
     11 C09        -19.0230   -22.4700    -3.4730 ca         1 S2U      -0.084000
     12 C17        -16.1960   -20.6400     1.3360 ca         1 S2U       0.079100
     13 C18        -17.5250   -20.1550     1.3310 ca         1 S2U      -0.114500
     14 C19        -18.5060   -20.7660     2.1350 ca         1 S2U      -0.140000
     15 C20        -18.1720   -21.8690     2.9500 ca         1 S2U       0.115100
     16 C23        -16.8550   -22.3530     2.9480 ca         1 S2U      -0.140000
     17 C24        -15.8750   -21.7440     2.1440 ca         1 S2U      -0.114500
     18 C25        -13.7900   -18.7610    -0.8110 c3         1 S2U      -0.095100
     19 C27        -18.1380   -19.8240    -3.7260 ca         1 S2U      -0.126000
     20 C28        -20.4660   -19.9320    -6.7340 cc         1 S2U      -0.253000
     21 N01        -19.9340   -15.9170    -8.8510 n2         1 S2U      -0.847100
     22 N03        -19.0610   -15.2620    -6.8990 nv         1 S2U      -1.076200
     23 N12        -16.7260   -20.1640    -1.6960 ns         1 S2U      -0.139000
     24 O16        -15.1700   -20.1140     0.5640 os         1 S2U      -0.377100
     25 O21        -19.0930   -22.5060     3.7570 os         1 S2U      -0.349100
     26 O26        -16.6350   -17.8690    -1.9220 o          1 S2U      -0.588100
     27 S29        -20.8480   -18.6980    -7.9260 ss         1 S2U       0.318000
     28 H101       -17.7430   -22.5820    -1.7420 ha         1 S2U       0.115000
     29 H151       -14.7660   -17.7900     1.6600 hc         1 S2U       0.056867
     30 H152       -15.2200   -16.7370     0.3100 hc         1 S2U       0.056867
     31 H153       -16.4620   -17.6500     1.1630 hc         1 S2U       0.056867
     32 H223       -21.0230   -22.7300     4.5270 h1         1 S2U       0.042367
     33 H221       -20.5460   -21.0550     4.1830 h1         1 S2U       0.042367
     34 H222       -20.9510   -22.1650     2.8460 h1         1 S2U       0.042367
     35 H051       -18.5050   -17.5770    -5.4020 ha         1 S2U       0.138000
     36 H081       -20.2110   -22.1040    -5.2150 ha         1 S2U       0.115000
     37 H091       -19.3670   -23.4980    -3.3760 ha         1 S2U       0.114000
     38 H181       -17.8280   -19.3200     0.7110 ha         1 S2U       0.127000
     39 H191       -19.5180   -20.3710     2.1090 ha         1 S2U       0.126500
     40 H231       -16.5920   -23.2040     3.5710 ha         1 S2U       0.126500
     41 H241       -14.8580   -22.1280     2.1470 ha         1 S2U       0.127000
     42 H253       -13.0240   -18.7610    -0.0260 hc         1 S2U       0.056867
     43 H251       -13.5880   -19.6050    -1.4830 hc         1 S2U       0.056867
     44 H252       -13.6850   -17.8350    -1.3890 hc         1 S2U       0.056867
     45 H271       -17.7790   -18.8100    -3.8290 ha         1 S2U       0.146000
     46 H281       -20.9370   -20.8980    -6.8440 h4         1 S2U       0.150000
     47 H011       -19.4530   -15.0400    -9.0790 hn         1 S2U       0.375400
     48 H032       -19.0240   -15.4850    -5.9120 hn         1 S2U       0.467500
     49 H121       -16.3400   -20.9000    -1.1170 hn         1 S2U       0.169000
     50 H031       -19.3130   -14.3040    -7.1100 hn         1 S2U       0.467500
     51 C02        -19.6550   -16.2020    -7.6510 ce         1 S2U       0.696800
     52 C13        -16.2480   -18.8980    -1.3750 c          1 S2U       0.579100
@<TRIPOS>BOND
     1     1     2 ar  
     2     1    19 ar  
     3     1    23 1   
     4     2    11 ar  
     5     2    28 1   
     6     3     4 1   
     7     3    18 1   
     8     3    24 1   
     9     3    52 1   
    10     4    29 1   
    11     4    30 1   
    12     4    31 1   
    13     5    25 1   
    14     5    32 1   
    15     5    33 1   
    16     5    34 1   
    17     6     7 2   
    18     6    27 1   
    19     6    51 1   
    20     7     8 1   
    21     7    35 1   
    22     8     9 1   
    23     8    20 2   
    24     9    10 ar  
    25     9    19 ar  
    26    10    11 ar  
    27    10    36 1   
    28    11    37 1   
    29    12    13 ar  
    30    12    17 ar  
    31    12    24 1   
    32    13    14 ar  
    33    13    38 1   
    34    14    15 ar  
    35    14    39 1   
    36    15    16 ar  
    37    15    25 1   
    38    16    17 ar  
    39    16    40 1   
    40    17    41 1   
    41    18    42 1   
    42    18    43 1   
    43    18    44 1   
    44    19    45 1   
    45    20    27 1   
    46    20    46 1   
    47    21    47 1   
    48    21    51 2   
    49    22    48 1   
    50    22    50 1   
    51    22    51 1   
    52    23    49 1   
    53    23    52 1   
    54    26    52 2   
@<TRIPOS>SUBSTRUCTURE
     1 S2U         1 TEMP              0 ****  ****    0 ROOT
