@<TRIPOS>MOLECULE
S2U
   52    54     1     0     0
SMALL
abcg2


@<TRIPOS>ATOM
      1 C11        -17.3570   -20.8820    -2.9330 ca         1 S2U      -0.025000
      2 C10        -17.7340   -22.2280    -2.9420 ca         1 S2U      -0.159000
      3 C14        -15.2000   -19.1830    -0.2980 c3         1 S2U       0.111000
      4 C15        -15.4090   -17.9440     0.5630 c3         1 S2U      -0.095100
      5 C22        -20.6320   -21.3460     3.8820 c3         1 S2U       0.147900
      6 C04        -19.8110   -17.4910    -6.8650 cc         1 S2U      -0.287900
      7 C05        -19.2870   -18.1360    -5.7760 cd         1 S2U      -0.097000
      8 C06        -19.2490   -19.5570    -5.9150 cd         1 S2U      -0.064000
      9 C07        -18.7330   -20.4820    -4.8890 ca         1 S2U       0.017000
     10 C08        -19.1140   -21.8280    -4.8790 ca         1 S2U      -0.126000
     11 C09        -18.6070   -22.6900    -3.9140 ca         1 S2U      -0.084000
     12 C17        -16.3430   -20.6470     1.3250 ca         1 S2U       0.079100
     13 C18        -17.6440   -20.2020     1.1310 ca         1 S2U      -0.114500
     14 C19        -18.6540   -20.5620     2.0250 ca         1 S2U      -0.140000
     15 C20        -18.3670   -21.3810     3.1130 ca         1 S2U       0.115100
     16 C23        -17.0580   -21.8320     3.3030 ca         1 S2U      -0.140000
     17 C24        -16.0590   -21.4650     2.4200 ca         1 S2U      -0.114500
     18 C25        -13.7840   -19.2040    -0.8760 c3         1 S2U      -0.095100
     19 C27        -17.8480   -20.0170    -3.9100 ca         1 S2U      -0.126000
     20 C28        -19.7540   -19.9450    -7.1350 cc         1 S2U      -0.253000
     21 N01        -20.4140   -15.6620    -8.2550 n2         1 S2U      -0.847100
     22 N03        -19.7240   -15.2320    -6.0360 nv         1 S2U      -1.076200
     23 N12        -16.4720   -20.4710    -1.9210 ns         1 S2U      -0.139000
     24 O16        -15.2820   -20.4000     0.4770 os         1 S2U      -0.377100
     25 O21        -19.2860   -21.7900     4.0360 os         1 S2U      -0.349100
     26 O26        -16.5950   -18.1860    -2.0040 o          1 S2U      -0.588100
     27 S29        -20.2640   -18.6220    -8.0940 ss         1 S2U       0.318000
     28 H101       -17.3490   -22.8980    -2.1820 ha         1 S2U       0.115000
     29 H151       -14.7060   -17.9740     1.3950 hc         1 S2U       0.056867
     30 H152       -15.2150   -17.0530    -0.0290 hc         1 S2U       0.056867
     31 H153       -16.4210   -17.8780     0.9580 hc         1 S2U       0.056867
     32 H223       -21.1850   -21.7730     4.7150 h1         1 S2U       0.042367
     33 H221       -20.6940   -20.2560     3.9200 h1         1 S2U       0.042367
     34 H222       -21.0580   -21.7010     2.9390 h1         1 S2U       0.042367
     35 H051       -18.9390   -17.6200    -4.8930 ha         1 S2U       0.138000
     36 H081       -19.8150   -22.2010    -5.6130 ha         1 S2U       0.115000
     37 H091       -18.9060   -23.7300    -3.9120 ha         1 S2U       0.114000
     38 H181       -17.9060   -19.5700     0.2960 ha         1 S2U       0.127000
     39 H191       -19.6540   -20.1960     1.8500 ha         1 S2U       0.126500
     40 H231       -16.8370   -22.4660     4.1510 ha         1 S2U       0.126500
     41 H241       -15.0430   -21.8080     2.5670 ha         1 S2U       0.127000
     42 H253       -13.0610   -19.1420    -0.0620 hc         1 S2U       0.056867
     43 H251       -13.6120   -20.1240    -1.4340 hc         1 S2U       0.056867
     44 H252       -13.6410   -18.3540    -1.5420 hc         1 S2U       0.056867
     45 H271       -17.5290   -18.9890    -3.9060 ha         1 S2U       0.146000
     46 H281       -19.8350   -20.9460    -7.5270 h4         1 S2U       0.150000
     47 H011       -20.5390   -14.6510    -8.2790 hn         1 S2U       0.375400
     48 H032       -19.7380   -15.6110    -5.1030 hn         1 S2U       0.467500
     49 H121       -16.0880   -21.2120    -1.3510 hn         1 S2U       0.169000
     50 H031       -20.0150   -14.2690    -6.1060 hn         1 S2U       0.467500
     51 C02        -20.0200   -16.0520    -7.0920 ce         1 S2U       0.696800
     52 C13        -16.1830   -19.2190    -1.4920 c          1 S2U       0.579100
@<TRIPOS>BOND
     1     1     2 ar  
     2     1    19 ar  
     3     1    23 1   
     4     2    11 ar  
     5     2    28 1   
     6     3     4 1   
     7     3    18 1   
     8     3    24 1   
     9     3    52 1   
    10     4    29 1   
    11     4    30 1   
    12     4    31 1   
    13     5    25 1   
    14     5    32 1   
    15     5    33 1   
    16     5    34 1   
    17     6     7 2   
    18     6    27 1   
    19     6    51 1   
    20     7     8 1   
    21     7    35 1   
    22     8     9 1   
    23     8    20 2   
    24     9    10 ar  
    25     9    19 ar  
    26    10    11 ar  
    27    10    36 1   
    28    11    37 1   
    29    12    13 ar  
    30    12    17 ar  
    31    12    24 1   
    32    13    14 ar  
    33    13    38 1   
    34    14    15 ar  
    35    14    39 1   
    36    15    16 ar  
    37    15    25 1   
    38    16    17 ar  
    39    16    40 1   
    40    17    41 1   
    41    18    42 1   
    42    18    43 1   
    43    18    44 1   
    44    19    45 1   
    45    20    27 1   
    46    20    46 1   
    47    21    47 1   
    48    21    51 2   
    49    22    48 1   
    50    22    50 1   
    51    22    51 1   
    52    23    49 1   
    53    23    52 1   
    54    26    52 2   
@<TRIPOS>SUBSTRUCTURE
     1 S2U         1 TEMP              0 ****  ****    0 ROOT
