@<TRIPOS>MOLECULE
S2V
   33    34     1     0     0
SMALL
No Charge or Current Charge


@<TRIPOS>ATOM
      1 N1           5.3000    14.6120    -3.9230 n3         1 S2V      -0.715600
      2 C4           5.3830    17.4940    -3.2320 c6         1 S2V       0.183300
      3 C5           4.0440    16.7320    -3.4030 c6         1 S2V      -0.127900
      4 C6           4.2160    15.5320    -4.3670 c6         1 S2V       0.165800
      5 C8           4.5080    20.6430    -1.3290 ca         1 S2V      -0.115600
      6 C10          5.0260    21.2150     0.9980 ca         1 S2V      -0.103000
      7 C13          3.8380    21.8820    -1.4600 ca         1 S2V      -0.100000
      8 C1           4.9430    13.7890    -2.7410 c3         1 S2V       0.153100
      9 C11          4.3570    22.4420     0.8530 ca         1 S2V      -0.125000
     10 C12          3.7660    22.7700    -0.3750 ca         1 S2V       0.157000
     11 C2           6.6000    15.3280    -3.7910 c6         1 S2V       0.165800
     12 C3           6.5040    16.5190    -2.8070 c6         1 S2V      -0.127900
     13 C9           5.1020    20.3200    -0.0850 ca         1 S2V      -0.073000
     14 F1           3.1220    23.9500    -0.5160 f          1 S2V      -0.175000
     15 O1           5.2640    18.5360    -2.2440 os         1 S2V      -0.449100
     16 O2           4.0760    19.9500    -3.5940 o          1 S2V      -0.488000
     17 H2           5.6690    17.9470    -4.1930 h1         1 S2V       0.065700
     18 H3           3.2710    17.4020    -3.8020 hc         1 S2V       0.058700
     19 H4           3.6800    16.3850    -2.4270 hc         1 S2V       0.058700
     20 H5           4.4470    15.9200    -5.3710 h1         1 S2V       0.056200
     21 H6           3.2600    14.9930    -4.4530 h1         1 S2V       0.056200
     22 H7           5.4860    20.9560     1.9500 ha         1 S2V       0.122000
     23 H8           3.3710    22.1610    -2.4020 ha         1 S2V       0.154000
     24 H9           4.0250    13.2180    -2.9320 h1         1 S2V       0.031367
     25 H10          5.7430    13.0720    -2.5150 h1         1 S2V       0.031367
     26 H11          4.7790    14.4080    -1.8490 h1         1 S2V       0.031367
     27 H12          4.2960    23.1360     1.6880 ha         1 S2V       0.134000
     28 H13          6.9160    15.7090    -4.7740 h1         1 S2V       0.056200
     29 H14          7.3890    14.6390    -3.4540 h1         1 S2V       0.056200
     30 H15          6.3210    16.1560    -1.7870 hc         1 S2V       0.058700
     31 H16          7.4650    17.0500    -2.7810 hc         1 S2V       0.058700
     32 H17          5.6250    19.3760     0.0530 ha         1 S2V       0.135000
     33 C7           4.5770    19.6950    -2.5070 c          1 S2V       0.611700
@<TRIPOS>BOND
     1     1     4 1   
     2     1     8 1   
     3     1    11 1   
     4     2     3 1   
     5     2    12 1   
     6     2    15 1   
     7     2    17 1   
     8     3     4 1   
     9     3    18 1   
    10     3    19 1   
    11     4    20 1   
    12     4    21 1   
    13     5     7 ar  
    14     5    13 ar  
    15     5    33 1   
    16     6     9 ar  
    17     6    13 ar  
    18     6    22 1   
    19     7    10 ar  
    20     7    23 1   
    21     8    24 1   
    22     8    25 1   
    23     8    26 1   
    24     9    10 ar  
    25     9    27 1   
    26    10    14 1   
    27    11    12 1   
    28    11    28 1   
    29    11    29 1   
    30    12    30 1   
    31    12    31 1   
    32    13    32 1   
    33    15    33 1   
    34    16    33 2   
@<TRIPOS>SUBSTRUCTURE
     1 S2V         1 TEMP              0 ****  ****    0 ROOT
