@<TRIPOS>MOLECULE
S2V
   33    34     1     0     0
SMALL
bcc


@<TRIPOS>ATOM
      1 N1           5.3140    14.6660    -3.9250 n3         1 S2V      -0.715600
      2 C4           5.3020    17.5010    -3.2000 c6         1 S2V       0.160100
      3 C5           4.0050    16.7240    -3.3530 c6         1 S2V      -0.127900
      4 C6           4.2260    15.5450    -4.3100 c6         1 S2V       0.165800
      5 C8           4.5480    20.5960    -1.3220 ca         1 S2V      -0.115600
      6 C10          4.9880    21.1660     0.9730 ca         1 S2V      -0.121000
      7 C13          3.9290    21.8290    -1.5100 ca         1 S2V      -0.118000
      8 C1           5.0060    13.8310    -2.7810 c3         1 S2V       0.153100
      9 C11          4.3710    22.3960     0.7990 ca         1 S2V      -0.143000
     10 C12          3.8530    22.7010    -0.4460 ca         1 S2V       0.121900
     11 C2           6.5450    15.4210    -3.7690 c6         1 S2V       0.165800
     12 C3           6.4370    16.5850    -2.7780 c6         1 S2V      -0.127900
     13 C9           5.0790    20.2640    -0.0780 ca         1 S2V      -0.091000
     14 F1           3.2520    23.8870    -0.6250 f          1 S2V      -0.139900
     15 O1           5.1810    18.5210    -2.1880 os         1 S2V      -0.425900
     16 O2           4.1810    19.9580    -3.5810 o          1 S2V      -0.537000
     17 H2           5.5610    17.9760    -4.1530 h1         1 S2V       0.065700
     18 H3           3.2110    17.3600    -3.7500 hc         1 S2V       0.058700
     19 H4           3.6760    16.3640    -2.3740 hc         1 S2V       0.058700
     20 H5           4.4390    15.9350    -5.3110 h1         1 S2V       0.056200
     21 H6           3.3070    14.9620    -4.3920 h1         1 S2V       0.056200
     22 H7           5.4000    20.9090     1.9390 ha         1 S2V       0.140000
     23 H8           3.5120    22.1050    -2.4700 ha         1 S2V       0.172000
     24 H9           4.0920    13.2680    -2.9760 h1         1 S2V       0.031367
     25 H10          5.8090    13.1080    -2.6280 h1         1 S2V       0.031367
     26 H11          4.8640    14.3690    -1.8340 h1         1 S2V       0.031367
     27 H12          4.2920    23.1030     1.6150 ha         1 S2V       0.152000
     28 H13          6.8280    15.8150    -4.7520 h1         1 S2V       0.056200
     29 H14          7.3460    14.7450    -3.4620 h1         1 S2V       0.056200
     30 H15          6.2580    16.2070    -1.7670 hc         1 S2V       0.058700
     31 H16          7.3820    17.1340    -2.7550 hc         1 S2V       0.058700
     32 H17          5.5630    19.3110     0.0830 ha         1 S2V       0.153000
     33 C7           4.6090    19.6720    -2.4890 c          1 S2V       0.660700
@<TRIPOS>BOND
     1     1     4 1   
     2     1     8 1   
     3     1    11 1   
     4     2     3 1   
     5     2    12 1   
     6     2    15 1   
     7     2    17 1   
     8     3     4 1   
     9     3    18 1   
    10     3    19 1   
    11     4    20 1   
    12     4    21 1   
    13     5     7 ar  
    14     5    13 ar  
    15     5    33 1   
    16     6     9 ar  
    17     6    13 ar  
    18     6    22 1   
    19     7    10 ar  
    20     7    23 1   
    21     8    24 1   
    22     8    25 1   
    23     8    26 1   
    24     9    10 ar  
    25     9    27 1   
    26    10    14 1   
    27    11    12 1   
    28    11    28 1   
    29    11    29 1   
    30    12    30 1   
    31    12    31 1   
    32    13    32 1   
    33    15    33 1   
    34    16    33 2   
@<TRIPOS>SUBSTRUCTURE
     1 S2V         1 TEMP              0 ****  ****    0 ROOT
