@<TRIPOS>MOLECULE
S2W
   42    44     1     0     0
SMALL
abcg2


@<TRIPOS>ATOM
      1 C4           1.5880   -29.6760   -44.5650 ca         1 S2W      -0.071000
      2 C5           1.8250   -28.8580   -45.6420 ca         1 S2W      -0.128000
      3 C6           0.8100   -28.6270   -46.5850 ca         1 S2W      -0.083000
      4 C7          -0.0160   -31.1850   -43.3250 ca         1 S2W       0.410900
      5 C13          0.9170   -33.9300   -42.0960 ca         1 S2W      -0.078300
      6 C15          0.0930   -35.8530   -43.2730 ca         1 S2W      -0.156300
      7 C17          2.2140   -34.3800   -42.3040 ca         1 S2W      -0.150000
      8 C1          -0.4230   -29.2090   -46.4380 ca         1 S2W      -0.099000
      9 C12          0.6550   -32.5940   -41.4220 c3         1 S2W       0.279800
     10 C14          1.3830   -36.3080   -43.4780 ca         1 S2W      -0.127000
     11 C16         -0.1540   -34.6750   -42.5750 ca         1 S2W      -0.081000
     12 C18          2.4690   -35.5740   -42.9850 ca         1 S2W       0.288000
     13 C19         -1.0810   -36.6130   -43.8060 c3         1 S2W       0.354300
     14 C2          -0.6900   -30.0510   -45.3400 ca         1 S2W       0.059000
     15 C23          1.4940   -32.3520   -40.1770 c3         1 S2W      -0.100100
     16 C3           0.3330   -30.2880   -44.3990 ca         1 S2W      -0.178000
     17 C9          -2.1260   -31.3850   -44.2000 ca         1 S2W       0.191300
     18 F20         -1.8550   -35.8430   -44.5880 f          1 S2W      -0.114333
     19 F21         -1.8730   -37.0640   -42.8210 f          1 S2W      -0.114333
     20 F22         -0.7310   -37.6750   -44.5370 f          1 S2W      -0.114333
     21 N10         -1.9260   -30.6100   -45.2300 nb         1 S2W      -0.213000
     22 N11          0.8740   -31.5140   -42.3750 nu         1 S2W      -0.919100
     23 N25          3.7570   -35.9920   -43.2200 nv         1 S2W      -1.078000
     24 N8          -1.2260   -31.6980   -43.2500 nb         1 S2W      -0.301000
     25 H27          2.3860   -29.8370   -43.8510 ha         1 S2W       0.103000
     26 H28          2.7930   -28.3930   -45.7650 ha         1 S2W       0.115000
     27 H29          1.0050   -27.9830   -47.4320 ha         1 S2W       0.116000
     28 H34          3.0560   -33.8040   -41.9370 ha         1 S2W       0.111000
     29 H38         -4.1490   -31.7270   -44.8290 hc         1 S2W       0.058033
     30 H39         -3.3740   -33.1090   -44.0350 hc         1 S2W       0.058033
     31 H40         -3.9080   -31.7440   -43.0740 hc         1 S2W       0.058033
     32 H26         -1.2130   -29.0350   -47.1580 ha         1 S2W       0.134000
     33 H31         -0.3950   -32.5610   -41.1350 h1         1 S2W       0.095700
     34 H32          1.5740   -37.2260   -44.0190 ha         1 S2W       0.130000
     35 H33         -1.1630   -34.3190   -42.4160 ha         1 S2W       0.145000
     36 H37          1.3430   -33.1580   -39.4600 hc         1 S2W       0.045367
     37 H35          2.5610   -32.2940   -40.3970 hc         1 S2W       0.045367
     38 H36          1.1990   -31.4160   -39.7040 hc         1 S2W       0.045367
     39 H30          1.8330   -31.2260   -42.4940 hn         1 S2W       0.488000
     40 H41          4.4620   -35.6330   -42.5970 hn         1 S2W       0.455000
     41 H42          3.8800   -36.9740   -43.4090 hn         1 S2W       0.455000
     42 C24         -3.4700   -32.0220   -44.0330 c3         1 S2W      -0.135400
@<TRIPOS>BOND
     1     1     2 ar  
     2     1    16 ar  
     3     1    25 1   
     4     2     3 ar  
     5     2    26 1   
     6     3     8 ar  
     7     3    27 1   
     8     4    16 ar  
     9     4    22 1   
    10     4    24 ar  
    11     5     7 ar  
    12     5     9 1   
    13     5    11 ar  
    14     6    10 ar  
    15     6    11 ar  
    16     6    13 1   
    17     7    12 ar  
    18     7    28 1   
    19     8    14 ar  
    20     8    32 1   
    21     9    15 1   
    22     9    22 1   
    23     9    33 1   
    24    10    12 ar  
    25    10    34 1   
    26    11    35 1   
    27    12    23 1   
    28    13    18 1   
    29    13    19 1   
    30    13    20 1   
    31    14    16 ar  
    32    14    21 ar  
    33    15    36 1   
    34    15    37 1   
    35    15    38 1   
    36    17    21 ar  
    37    17    24 ar  
    38    17    42 1   
    39    22    39 1   
    40    23    40 1   
    41    23    41 1   
    42    29    42 1   
    43    30    42 1   
    44    31    42 1   
@<TRIPOS>SUBSTRUCTURE
     1 S2W         1 TEMP              0 ****  ****    0 ROOT
