@<TRIPOS>MOLECULE
S2W
   42    44     1     0     0
SMALL
No Charge or Current Charge


@<TRIPOS>ATOM
      1 C4           1.6080   -29.5690   -44.3390 ca         1 S2W      -0.071000
      2 C5           1.9530   -28.6920   -45.3800 ca         1 S2W      -0.128000
      3 C6           1.0640   -28.4780   -46.4450 ca         1 S2W      -0.083000
      4 C7          -0.0440   -31.1380   -43.3440 ca         1 S2W       0.410900
      5 C13          0.8420   -33.8900   -42.0740 ca         1 S2W      -0.078300
      6 C15         -0.0730   -35.9760   -42.9930 ca         1 S2W      -0.156300
      7 C17          2.1130   -34.2360   -42.5830 ca         1 S2W      -0.150000
      8 C1          -0.1720   -29.1450   -46.4700 ca         1 S2W      -0.099000
      9 C12          0.6180   -32.5710   -41.3240 c3         1 S2W       0.279800
     10 C14          1.2120   -36.3070   -43.4770 ca         1 S2W      -0.127000
     11 C16         -0.2420   -34.7660   -42.2850 ca         1 S2W      -0.081000
     12 C18          2.2980   -35.4410   -43.2750 ca         1 S2W       0.288000
     13 C19         -1.2720   -36.9080   -43.2090 c3         1 S2W       0.354300
     14 C2          -0.5350   -30.0280   -45.4370 ca         1 S2W       0.059000
     15 C23          1.5780   -32.3920   -40.1320 c3         1 S2W      -0.100100
     16 C3           0.3630   -30.2410   -44.3610 ca         1 S2W      -0.178000
     17 C9          -2.0150   -31.4990   -44.4550 ca         1 S2W       0.191300
     18 F20         -2.3980   -36.2210   -43.5090 f          1 S2W      -0.114333
     19 F21         -1.5360   -37.6340   -42.1000 f          1 S2W      -0.114333
     20 F22         -1.0770   -37.7870   -44.2190 f          1 S2W      -0.114333
     21 N10         -1.7240   -30.6650   -45.4730 nb         1 S2W      -0.213000
     22 N11          0.7620   -31.4330   -42.2440 nu         1 S2W      -0.919100
     23 N25          3.5390   -35.7690   -43.7560 nv         1 S2W      -1.078000
     24 N8          -1.2340   -31.7600   -43.3920 nb         1 S2W      -0.301000
     25 H27          2.3160   -29.7150   -43.5270 ha         1 S2W       0.103000
     26 H28          2.9100   -28.1760   -45.3610 ha         1 S2W       0.115000
     27 H29          1.3320   -27.7980   -47.2510 ha         1 S2W       0.116000
     28 H34          2.9540   -33.5640   -42.4440 ha         1 S2W       0.111000
     29 H38         -3.8130   -32.1490   -45.4990 hc         1 S2W       0.058033
     30 H39         -3.2410   -33.2790   -44.2640 hc         1 S2W       0.058033
     31 H40         -4.0540   -31.7800   -43.7830 hc         1 S2W       0.058033
     32 H26         -0.8550   -28.9750   -47.3000 ha         1 S2W       0.134000
     33 H31         -0.4020   -32.5760   -40.9100 h1         1 S2W       0.095700
     34 H32          1.3720   -37.2380   -44.0140 ha         1 S2W       0.130000
     35 H33         -1.2260   -34.5000   -41.9020 ha         1 S2W       0.145000
     36 H37          1.4890   -33.2410   -39.4440 hc         1 S2W       0.045367
     37 H35          2.6220   -32.3250   -40.4600 hc         1 S2W       0.045367
     38 H36          1.3330   -31.4790   -39.5760 hc         1 S2W       0.045367
     39 H30          1.6570   -30.9520   -42.2290 hn         1 S2W       0.488000
     40 H41          4.3490   -35.2090   -43.4960 hn         1 S2W       0.455000
     41 H42          3.7120   -36.6980   -44.1360 hn         1 S2W       0.455000
     42 C24         -3.3530   -32.2150   -44.5050 c3         1 S2W      -0.135400
@<TRIPOS>BOND
     1     1     2 ar  
     2     1    16 ar  
     3     1    25 1   
     4     2     3 ar  
     5     2    26 1   
     6     3     8 ar  
     7     3    27 1   
     8     4    16 ar  
     9     4    22 1   
    10     4    24 ar  
    11     5     7 ar  
    12     5     9 1   
    13     5    11 ar  
    14     6    10 ar  
    15     6    11 ar  
    16     6    13 1   
    17     7    12 ar  
    18     7    28 1   
    19     8    14 ar  
    20     8    32 1   
    21     9    15 1   
    22     9    22 1   
    23     9    33 1   
    24    10    12 ar  
    25    10    34 1   
    26    11    35 1   
    27    12    23 1   
    28    13    18 1   
    29    13    19 1   
    30    13    20 1   
    31    14    16 ar  
    32    14    21 ar  
    33    15    36 1   
    34    15    37 1   
    35    15    38 1   
    36    17    21 ar  
    37    17    24 ar  
    38    17    42 1   
    39    22    39 1   
    40    23    40 1   
    41    23    41 1   
    42    29    42 1   
    43    30    42 1   
    44    31    42 1   
@<TRIPOS>SUBSTRUCTURE
     1 S2W         1 TEMP              0 ****  ****    0 ROOT
