@<TRIPOS>MOLECULE
S2X
   31    32     1     0     0
SMALL
abcg2


@<TRIPOS>ATOM
      1 O3           2.3080     2.7410     0.0240 o          1 S2X      -0.569100
      2 C1           3.4120     2.2400    -0.1180 c          1 S2X       0.596100
      3 C            4.6590     3.0850    -0.2040 c3         1 S2X      -0.180100
      4 N            3.6300     0.9070    -0.2190 ns         1 S2X      -0.142000
      5 C2           2.7130    -0.1540    -0.1750 ca         1 S2X      -0.090000
      6 C7           1.3390    -0.0070    -0.0660 ca         1 S2X      -0.072000
      7 C6           0.4780    -1.1120    -0.0300 cp         1 S2X      -0.203500
      8 C5           1.0290    -2.4070    -0.1070 ca         1 S2X       0.172100
      9 O2           0.2980    -3.5240    -0.0790 oh         1 S2X      -0.584100
     10 C4           2.4150    -2.5460    -0.2200 ca         1 S2X      -0.161000
     11 C3           3.2410    -1.4460    -0.2530 ca         1 S2X      -0.129000
     12 C8          -0.9820    -0.9060     0.0840 cp         1 S2X       0.374500
     13 N1          -1.7400    -2.0100     0.1060 nb         1 S2X      -0.765000
     14 C12         -3.0600    -1.9090     0.2030 ca         1 S2X       0.314900
     15 C11         -3.7130    -0.6950     0.2830 ca         1 S2X      -0.130000
     16 C10         -2.9540     0.4710     0.2620 ca         1 S2X      -0.102600
     17 C9          -1.5780     0.3550     0.1620 ca         1 S2X      -0.115000
     18 C13         -3.6180     1.8480     0.3450 c          1 S2X       0.713600
     19 O1          -2.8540     2.8280     0.3060 o          1 S2X      -0.705000
     20 O           -4.8560     1.8500     0.4430 o          1 S2X      -0.705000
     21 HC1          4.7070     3.7400     0.6650 hc         1 S2X       0.055033
     22 HC2          5.5810     2.5100    -0.2560 hc         1 S2X       0.055033
     23 HC3          4.6000     3.7200    -1.0880 hc         1 S2X       0.055033
     24 H            4.5900     0.6240    -0.3350 hn         1 S2X       0.136000
     25 H7           0.9280     0.9850    -0.0060 ha         1 S2X       0.159000
     26 H3           4.3120    -1.5900    -0.3390 ha         1 S2X       0.093000
     27 H4           2.8370    -3.5410    -0.2810 ha         1 S2X       0.114000
     28 H9          -0.9870     1.2590     0.1450 ha         1 S2X       0.152000
     29 H12         -3.6110    -2.8410     0.2160 h4         1 S2X      -0.005900
     30 H11         -4.7900    -0.6580     0.3590 ha         1 S2X       0.139000
     31 H21         -0.6550    -3.2390    -0.0050 ho         1 S2X       0.531000
@<TRIPOS>BOND
     1     1     2 2   
     2     2     3 1   
     3     2     4 1   
     4     3    21 1   
     5     3    22 1   
     6     3    23 1   
     7     4     5 1   
     8     4    24 1   
     9     5     6 ar  
    10     5    11 ar  
    11     6     7 ar  
    12     6    25 1   
    13     7     8 ar  
    14     7    12 1   
    15     8     9 1   
    16     8    10 ar  
    17     9    31 1   
    18    10    11 ar  
    19    10    27 1   
    20    11    26 1   
    21    12    13 ar  
    22    12    17 ar  
    23    13    14 ar  
    24    14    15 ar  
    25    14    29 1   
    26    15    16 ar  
    27    15    30 1   
    28    16    17 ar  
    29    16    18 1   
    30    17    28 1   
    31    18    19 1   
    32    18    20 1   
@<TRIPOS>SUBSTRUCTURE
     1 S2X         1 TEMP              0 ****  ****    0 ROOT
