@<TRIPOS>MOLECULE
S2X
   31    32     1     0     0
SMALL
No Charge or Current Charge


@<TRIPOS>ATOM
      1 O3           2.3920     2.8900    -0.1570 o          1 S2X      -0.569100
      2 C1           3.4740     2.3270    -0.2690 c          1 S2X       0.596100
      3 C            4.7700     3.1200    -0.4260 c3         1 S2X      -0.180100
      4 N            3.6540     0.9480    -0.2610 ns         1 S2X      -0.142000
      5 C2           2.7430    -0.1420    -0.1550 ca         1 S2X      -0.090000
      6 C7           1.3370     0.0100    -0.1470 ca         1 S2X      -0.072000
      7 C6           0.4610    -1.1090    -0.0390 cp         1 S2X      -0.203500
      8 C5           1.0620    -2.3960     0.0350 ca         1 S2X       0.172100
      9 O2           0.2890    -3.5080     0.1090 oh         1 S2X      -0.584100
     10 C4           2.4550    -2.5520     0.0260 ca         1 S2X      -0.161000
     11 C3           3.2920    -1.4320    -0.0660 ca         1 S2X      -0.129000
     12 C8          -1.0380    -0.9150    -0.0070 cp         1 S2X       0.374500
     13 N1          -1.8010    -1.9760    -0.3780 nb         1 S2X      -0.765000
     14 C12         -3.1470    -1.8520    -0.3730 ca         1 S2X       0.314900
     15 C11         -3.8050    -0.6780     0.0200 ca         1 S2X      -0.130000
     16 C10         -3.0490     0.4380     0.4390 ca         1 S2X      -0.102600
     17 C9          -1.6420     0.2970     0.4210 ca         1 S2X      -0.115000
     18 C13         -3.7150     1.7250     0.8910 c          1 S2X       0.713600
     19 O1          -3.0050     2.6560     1.2450 o          1 S2X      -0.705000
     20 O           -4.9370     1.7840     0.8840 o          1 S2X      -0.705000
     21 HC1          4.6060     4.2040    -0.4260 hc         1 S2X       0.055033
     22 HC2          5.4710     2.8170     0.3600 hc         1 S2X       0.055033
     23 HC3          5.2840     2.7880    -1.3360 hc         1 S2X       0.055033
     24 H            4.6210     0.6610    -0.3490 hn         1 S2X       0.136000
     25 H7           0.9090     1.0000    -0.2480 ha         1 S2X       0.159000
     26 H3           4.3710    -1.5690    -0.0740 ha         1 S2X       0.093000
     27 H4           2.8880    -3.5470     0.0870 ha         1 S2X       0.114000
     28 H9          -1.0210     1.1200     0.7560 ha         1 S2X       0.152000
     29 H12         -3.7130    -2.7270    -0.6890 h4         1 S2X      -0.005900
     30 H11         -4.8910    -0.6480     0.0040 ha         1 S2X       0.139000
     31 H21         -0.6340    -3.1570    -0.0550 ho         1 S2X       0.531000
@<TRIPOS>BOND
     1     1     2 2   
     2     2     3 1   
     3     2     4 1   
     4     3    21 1   
     5     3    22 1   
     6     3    23 1   
     7     4     5 1   
     8     4    24 1   
     9     5     6 ar  
    10     5    11 ar  
    11     6     7 ar  
    12     6    25 1   
    13     7     8 ar  
    14     7    12 1   
    15     8     9 1   
    16     8    10 ar  
    17     9    31 1   
    18    10    11 ar  
    19    10    27 1   
    20    11    26 1   
    21    12    13 ar  
    22    12    17 ar  
    23    13    14 ar  
    24    14    15 ar  
    25    14    29 1   
    26    15    16 ar  
    27    15    30 1   
    28    16    17 ar  
    29    16    18 1   
    30    17    28 1   
    31    18    19 1   
    32    18    20 1   
@<TRIPOS>SUBSTRUCTURE
     1 S2X         1 TEMP              0 ****  ****    0 ROOT
