@<TRIPOS>MOLECULE
S2Y
   31    32     1     0     0
SMALL
abcg2


@<TRIPOS>ATOM
      1 N1          13.3300    22.7400     0.9190 nu         1 S2Y      -0.955200
      2 C4          14.1290    22.9390    -1.3460 ca         1 S2Y      -0.142000
      3 C5          13.0730    22.8430    -0.4360 ca         1 S2Y       0.268000
      4 C6          11.7720    22.8870    -0.9520 ca         1 S2Y      -0.142000
      5 C7          11.5490    23.0220    -2.3120 ca         1 S2Y      -0.129000
      6 C8          12.3300    22.2620     1.8350 c3         1 S2Y       0.263100
      7 C10         11.6170    24.6690     2.1970 ca         1 S2Y      -0.073500
      8 C13          9.1600    23.8500     3.2000 ca         1 S2Y      -0.152500
      9 C1          13.3420    23.2900    -5.4590 c3         1 S2Y       0.149900
     10 C11         10.6990    25.6190     2.6250 ca         1 S2Y      -0.152500
     11 C12          9.4850    25.1900     3.1220 ca         1 S2Y       0.170000
     12 C14         10.0900    22.9180     2.7620 ca         1 S2Y      -0.073500
     13 C2          12.6080    23.1190    -3.2100 ca         1 S2Y       0.094100
     14 C3          13.9070    23.0750    -2.7090 ca         1 S2Y      -0.129000
     15 C9          11.3280    23.3110     2.2620 ca         1 S2Y      -0.115300
     16 O1          12.2900    23.2510    -4.5210 os         1 S2Y      -0.343100
     17 H1          14.2690    22.4580     1.1450 hn         1 S2Y       0.467000
     18 H2          15.1500    22.9030    -0.9860 ha         1 S2Y       0.114500
     19 H3          10.9150    22.8230    -0.2950 ha         1 S2Y       0.114500
     20 H4          10.5310    23.0540    -2.6840 ha         1 S2Y       0.119500
     21 H5          11.7880    21.3950     1.4350 h1         1 S2Y       0.043700
     22 H6          12.8550    21.9030     2.7230 h1         1 S2Y       0.043700
     23 H7          12.5700    24.9930     1.7990 ha         1 S2Y       0.123000
     24 H8           8.1990    23.5370     3.5890 ha         1 S2Y       0.131500
     25 H9          12.8820    23.3770    -6.4410 h1         1 S2Y       0.037033
     26 H10         14.0010    24.1500    -5.3070 h1         1 S2Y       0.037033
     27 H11         13.9470    22.3790    -5.4380 h1         1 S2Y       0.037033
     28 H12         10.9270    26.6760     2.5690 ha         1 S2Y       0.131500
     29 H13          9.8390    21.8640     2.8120 ha         1 S2Y       0.123000
     30 H14         14.7660    23.1390    -3.3630 ha         1 S2Y       0.119500
     31 F1           8.5880    26.1030     3.5370 f          1 S2Y      -0.181000
@<TRIPOS>BOND
     1     1     3 1   
     2     1     6 1   
     3     1    17 1   
     4     2     3 ar  
     5     2    14 ar  
     6     2    18 1   
     7     3     4 ar  
     8     4     5 ar  
     9     4    19 1   
    10     5    13 ar  
    11     5    20 1   
    12     6    15 1   
    13     6    21 1   
    14     6    22 1   
    15     7    10 ar  
    16     7    15 ar  
    17     7    23 1   
    18     8    11 ar  
    19     8    12 ar  
    20     8    24 1   
    21     9    16 1   
    22     9    25 1   
    23     9    26 1   
    24     9    27 1   
    25    10    11 ar  
    26    10    28 1   
    27    11    31 1   
    28    12    15 ar  
    29    12    29 1   
    30    13    14 ar  
    31    13    16 1   
    32    14    30 1   
@<TRIPOS>SUBSTRUCTURE
     1 S2Y         1 TEMP              0 ****  ****    0 ROOT
