@<TRIPOS>MOLECULE
S2Y
   31    32     1     0     0
SMALL
No Charge or Current Charge


@<TRIPOS>ATOM
      1 N1          13.3720    22.2400     1.0570 nu         1 S2Y      -0.955200
      2 C4          13.8220    23.2180    -1.1080 ca         1 S2Y      -0.142000
      3 C5          13.0350    22.3900    -0.2900 ca         1 S2Y       0.268000
      4 C6          11.9290    21.7210    -0.8470 ca         1 S2Y      -0.142000
      5 C7          11.6080    21.8890    -2.2070 ca         1 S2Y      -0.129000
      6 C8          12.4160    22.1100     2.1690 c3         1 S2Y       0.263100
      7 C10         12.0410    24.5370     2.8330 ca         1 S2Y      -0.073500
      8 C13          9.3940    24.4630     1.8870 ca         1 S2Y      -0.152500
      9 C1          12.7630    23.6800    -5.2690 c3         1 S2Y       0.149900
     10 C11         11.2280    25.6820     2.9230 ca         1 S2Y      -0.152500
     11 C12          9.9080    25.6410     2.4490 ca         1 S2Y       0.170000
     12 C14         10.2040    23.3170     1.7970 ca         1 S2Y      -0.073500
     13 C2          12.3900    22.7230    -3.0230 ca         1 S2Y       0.094100
     14 C3          13.5060    23.3900    -2.4690 ca         1 S2Y      -0.129000
     15 C9          11.5330    23.3490     2.2690 ca         1 S2Y      -0.115300
     16 O1          12.0290    22.8510    -4.3490 os         1 S2Y      -0.343100
     17 H1          14.2680    22.6590     1.3110 hn         1 S2Y       0.467000
     18 H2          14.6800    23.7370    -0.6890 ha         1 S2Y       0.114500
     19 H3          11.3200    21.0660    -0.2330 ha         1 S2Y       0.114500
     20 H4          10.7520    21.3700    -2.6290 ha         1 S2Y       0.119500
     21 H5          11.7920    21.2150     2.0360 h1         1 S2Y       0.043700
     22 H6          12.9620    21.9840     3.1150 h1         1 S2Y       0.043700
     23 H7          13.0650    24.5730     3.1990 ha         1 S2Y       0.123000
     24 H8           8.3700    24.4400     1.5220 ha         1 S2Y       0.131500
     25 H9          12.3060    23.6380    -6.2650 h1         1 S2Y       0.037033
     26 H10         12.7610    24.7260    -4.9370 h1         1 S2Y       0.037033
     27 H11         13.8020    23.3400    -5.3570 h1         1 S2Y       0.037033
     28 H12         11.6200    26.5980     3.3570 ha         1 S2Y       0.131500
     29 H13          9.8000    22.4070     1.3590 ha         1 S2Y       0.123000
     30 H14         14.1330    24.0400    -3.0730 ha         1 S2Y       0.119500
     31 F1           9.1290    26.7410     2.5350 f          1 S2Y      -0.181000
@<TRIPOS>BOND
     1     1     3 1   
     2     1     6 1   
     3     1    17 1   
     4     2     3 ar  
     5     2    14 ar  
     6     2    18 1   
     7     3     4 ar  
     8     4     5 ar  
     9     4    19 1   
    10     5    13 ar  
    11     5    20 1   
    12     6    15 1   
    13     6    21 1   
    14     6    22 1   
    15     7    10 ar  
    16     7    15 ar  
    17     7    23 1   
    18     8    11 ar  
    19     8    12 ar  
    20     8    24 1   
    21     9    16 1   
    22     9    25 1   
    23     9    26 1   
    24     9    27 1   
    25    10    11 ar  
    26    10    28 1   
    27    11    31 1   
    28    12    15 ar  
    29    12    29 1   
    30    13    14 ar  
    31    13    16 1   
    32    14    30 1   
@<TRIPOS>SUBSTRUCTURE
     1 S2Y         1 TEMP              0 ****  ****    0 ROOT
