@<TRIPOS>MOLECULE
S2Z
   45    47     1     0     0
SMALL
No Charge or Current Charge


@<TRIPOS>ATOM
      1 C4         -51.1360   -19.0750   -45.0560 ca         1 S2Z      -0.150000
      2 C5         -51.5280   -17.7250   -44.8840 ca         1 S2Z      -0.178000
      3 C6         -51.1290   -16.7480   -45.8280 ca         1 S2Z       0.075000
      4 C7         -52.3200   -17.2860   -43.7950 ca         1 S2Z       0.411900
      5 C17        -53.8850   -17.9320   -41.8720 c3         1 S2Z       0.290800
      6 C20        -55.9430   -16.6160   -42.5930 ca         1 S2Z      -0.096000
      7 C21        -57.1570   -16.4970   -43.2920 ca         1 S2Z      -0.110500
      8 C22        -57.6490   -17.5800   -44.0390 ca         1 S2Z      -0.107000
      9 C24        -55.7090   -18.9020   -43.3910 ca         1 S2Z      -0.096000
     10 C23        -56.9230   -18.7820   -44.0890 ca         1 S2Z      -0.110500
     11 C1         -50.3430   -17.1290   -46.9280 ca         1 S2Z      -0.187000
     12 C18        -55.2090   -17.8200   -42.6330 ca         1 S2Z      -0.093300
     13 C3         -50.3450   -19.4510   -46.1660 ca         1 S2Z       0.105100
     14 C2         -49.9470   -18.4730   -47.1060 ca         1 S2Z       0.155100
     15 C9         -52.2540   -15.1460   -44.6080 ca         1 S2Z       0.186300
     16 C19        -53.9070   -19.0600   -40.8230 c3         1 S2Z      -0.106100
     17 C14        -50.2990   -21.8300   -45.4690 c3         1 S2Z       0.144900
     18 C12        -48.7180   -17.9470   -49.1920 c3         1 S2Z       0.142900
     19 N10        -51.4980   -15.4600   -45.6790 nb         1 S2Z      -0.220000
     20 N8         -52.6780   -15.9980   -43.6580 nb         1 S2Z      -0.288000
     21 N16        -52.7740   -18.1600   -42.8070 nu         1 S2Z      -0.930100
     22 O13        -49.9430   -20.7630   -46.3660 os         1 S2Z      -0.318100
     23 O11        -49.1720   -18.8680   -48.1850 os         1 S2Z      -0.318100
     24 H26        -51.4440   -19.8220   -44.3330 ha         1 S2Z       0.109000
     25 H33        -52.6220   -13.1550   -45.4070 hc         1 S2Z       0.055367
     26 H34        -53.6850   -13.6040   -44.0680 hc         1 S2Z       0.055367
     27 H35        -51.9950   -13.1760   -43.7500 hc         1 S2Z       0.055367
     28 H37        -53.7130   -16.9910   -41.3270 h1         1 S2Z       0.082700
     29 H41        -55.5720   -15.7680   -42.0210 ha         1 S2Z       0.109000
     30 H42        -57.7160   -15.5650   -43.2540 ha         1 S2Z       0.111500
     31 H43        -58.5880   -17.4880   -44.5800 ha         1 S2Z       0.112000
     32 H45        -55.1540   -19.8350   -43.4440 ha         1 S2Z       0.109000
     33 H44        -57.3000   -19.6200   -44.6700 ha         1 S2Z       0.111500
     34 H25        -50.0490   -16.3620   -47.6380 ha         1 S2Z       0.141000
     35 H40        -54.7300   -18.9020   -40.1160 hc         1 S2Z       0.045033
     36 H38        -54.0410   -20.0420   -41.2910 hc         1 S2Z       0.045033
     37 H39        -52.9700   -19.0750   -40.2530 hc         1 S2Z       0.045033
     38 H30        -49.8750   -22.7790   -45.8220 h1         1 S2Z       0.039700
     39 H31        -49.9100   -21.6390   -44.4610 h1         1 S2Z       0.039700
     40 H32        -51.3890   -21.9450   -45.4130 h1         1 S2Z       0.039700
     41 H27        -48.1230   -18.4740   -49.9480 h1         1 S2Z       0.044700
     42 H28        -49.5690   -17.4730   -49.7000 h1         1 S2Z       0.044700
     43 H29        -48.0890   -17.1640   -48.7500 h1         1 S2Z       0.044700
     44 H36        -52.4760   -19.1230   -42.9230 hn         1 S2Z       0.491000
     45 C15        -52.6610   -13.6920   -44.4510 c3         1 S2Z      -0.132400
@<TRIPOS>BOND
     1     1     2 ar  
     2     1    13 ar  
     3     1    24 1   
     4     2     3 ar  
     5     2     4 ar  
     6     3    11 ar  
     7     3    19 ar  
     8     4    20 ar  
     9     4    21 1   
    10     5    12 1   
    11     5    16 1   
    12     5    21 1   
    13     5    28 1   
    14     6     7 ar  
    15     6    12 ar  
    16     6    29 1   
    17     7     8 ar  
    18     7    30 1   
    19     8    10 ar  
    20     8    31 1   
    21     9    10 ar  
    22     9    12 ar  
    23     9    32 1   
    24    10    33 1   
    25    11    14 ar  
    26    11    34 1   
    27    13    14 ar  
    28    13    22 1   
    29    14    23 1   
    30    15    19 ar  
    31    15    20 ar  
    32    15    45 1   
    33    16    35 1   
    34    16    36 1   
    35    16    37 1   
    36    17    22 1   
    37    17    38 1   
    38    17    39 1   
    39    17    40 1   
    40    18    23 1   
    41    18    41 1   
    42    18    42 1   
    43    18    43 1   
    44    21    44 1   
    45    25    45 1   
    46    26    45 1   
    47    27    45 1   
@<TRIPOS>SUBSTRUCTURE
     1 S2Z         1 TEMP              0 ****  ****    0 ROOT
