@<TRIPOS>MOLECULE
S2Z
   45    47     1     0     0
SMALL
abcg2


@<TRIPOS>ATOM
      1 C4         -51.0920   -19.1770   -45.1670 ca         1 S2Z      -0.150000
      2 C5         -51.5440   -17.8480   -45.0120 ca         1 S2Z      -0.178000
      3 C6         -51.1160   -16.8580   -45.9070 ca         1 S2Z       0.075000
      4 C7         -52.4380   -17.4020   -43.9840 ca         1 S2Z       0.411900
      5 C17        -53.8690   -17.8720   -42.0420 c3         1 S2Z       0.290800
      6 C20        -56.0770   -16.6680   -42.1770 ca         1 S2Z      -0.096000
      7 C21        -57.3750   -16.5340   -42.6520 ca         1 S2Z      -0.110500
      8 C22        -57.8710   -17.4350   -43.5850 ca         1 S2Z      -0.107000
      9 C24        -55.7640   -18.6030   -43.5540 ca         1 S2Z      -0.096000
     10 C23        -57.0600   -18.4690   -44.0350 ca         1 S2Z      -0.110500
     11 C1         -50.2270   -17.2090   -46.9460 ca         1 S2Z      -0.187000
     12 C18        -55.2600   -17.7040   -42.6190 ca         1 S2Z      -0.093300
     13 C3         -50.2340   -19.5110   -46.1810 ca         1 S2Z       0.105100
     14 C2         -49.7870   -18.5000   -47.0890 ca         1 S2Z       0.155100
     15 C9         -52.3490   -15.2810   -44.8400 ca         1 S2Z       0.186300
     16 C19        -53.8640   -18.9230   -40.9380 c3         1 S2Z      -0.106100
     17 C14        -50.1440   -21.7890   -45.5600 c3         1 S2Z       0.144900
     18 C12        -48.4570   -17.9830   -48.9710 c3         1 S2Z       0.142900
     19 N10        -51.5250   -15.5650   -45.8130 nb         1 S2Z      -0.220000
     20 N8         -52.8260   -16.1430   -43.9250 nb         1 S2Z      -0.288000
     21 N16        -52.8940   -18.2470   -43.0450 nu         1 S2Z      -0.930100
     22 O13        -49.7510   -20.7410   -46.4220 os         1 S2Z      -0.318100
     23 O11        -48.9460   -18.9270   -48.0360 os         1 S2Z      -0.318100
     24 H26        -51.4240   -19.9480   -44.4850 ha         1 S2Z       0.109000
     25 H33        -52.4060   -13.2340   -45.4790 hc         1 S2Z       0.055367
     26 H34        -53.9160   -13.8260   -44.7680 hc         1 S2Z       0.055367
     27 H35        -52.5510   -13.4640   -43.7290 hc         1 S2Z       0.055367
     28 H37        -53.5620   -16.9160   -41.6120 h1         1 S2Z       0.082700
     29 H41        -55.6920   -15.9570   -41.4550 ha         1 S2Z       0.109000
     30 H42        -57.9960   -15.7210   -42.2980 ha         1 S2Z       0.111500
     31 H43        -58.8800   -17.3310   -43.9610 ha         1 S2Z       0.112000
     32 H45        -55.1440   -19.4130   -43.9200 ha         1 S2Z       0.109000
     33 H44        -57.4370   -19.1750   -44.7640 ha         1 S2Z       0.111500
     34 H25        -49.9100   -16.4240   -47.6180 ha         1 S2Z       0.141000
     35 H40        -54.5760   -18.6540   -40.1600 hc         1 S2Z       0.045033
     36 H38        -54.1480   -19.9040   -41.3270 hc         1 S2Z       0.045033
     37 H39        -52.8770   -19.0040   -40.4840 hc         1 S2Z       0.045033
     38 H30        -49.6570   -22.6890   -45.9260 h1         1 S2Z       0.039700
     39 H31        -49.8260   -21.6090   -44.5290 h1         1 S2Z       0.039700
     40 H32        -51.2260   -21.9430   -45.5730 h1         1 S2Z       0.039700
     41 H27        -47.8060   -18.5300   -49.6470 h1         1 S2Z       0.044700
     42 H28        -49.2660   -17.5280   -49.5480 h1         1 S2Z       0.044700
     43 H29        -47.8810   -17.1920   -48.4840 h1         1 S2Z       0.044700
     44 H36        -52.6570   -19.2230   -43.1090 hn         1 S2Z       0.491000
     45 C15        -52.8270   -13.8690   -44.7040 c3         1 S2Z      -0.132400
@<TRIPOS>BOND
     1     1     2 ar  
     2     1    13 ar  
     3     1    24 1   
     4     2     3 ar  
     5     2     4 ar  
     6     3    11 ar  
     7     3    19 ar  
     8     4    20 ar  
     9     4    21 1   
    10     5    12 1   
    11     5    16 1   
    12     5    21 1   
    13     5    28 1   
    14     6     7 ar  
    15     6    12 ar  
    16     6    29 1   
    17     7     8 ar  
    18     7    30 1   
    19     8    10 ar  
    20     8    31 1   
    21     9    10 ar  
    22     9    12 ar  
    23     9    32 1   
    24    10    33 1   
    25    11    14 ar  
    26    11    34 1   
    27    13    14 ar  
    28    13    22 1   
    29    14    23 1   
    30    15    19 ar  
    31    15    20 ar  
    32    15    45 1   
    33    16    35 1   
    34    16    36 1   
    35    16    37 1   
    36    17    22 1   
    37    17    38 1   
    38    17    39 1   
    39    17    40 1   
    40    18    23 1   
    41    18    41 1   
    42    18    42 1   
    43    18    43 1   
    44    21    44 1   
    45    25    45 1   
    46    26    45 1   
    47    27    45 1   
@<TRIPOS>SUBSTRUCTURE
     1 S2Z         1 TEMP              0 ****  ****    0 ROOT
