@<TRIPOS>MOLECULE
S30
   55    59     1     0     0
SMALL
abcg2


@<TRIPOS>ATOM
      1 CAT         -2.8690     1.2690    -2.7250 c3         1 S30      -0.053800
      2 CAL         -3.2360     2.0790    -1.5190 ca         1 S30      -0.052300
      3 CAM         -3.8050     3.3430    -1.6470 ca         1 S30      -0.109000
      4 CAE         -4.1600     4.0920    -0.5330 ca         1 S30      -0.096000
      5 CAD         -3.9510     3.5890     0.7430 ca         1 S30      -0.109000
      6 CAC         -3.3860     2.3320     0.8940 ca         1 S30      -0.093000
      7 CAK         -3.0320     1.5970    -0.2260 ca         1 S30       0.014600
      8 NAJ         -2.4320     0.3090    -0.0460 n          1 S30      -0.263500
      9 CAI         -3.2830    -0.8000    -0.0610 c          1 S30       0.581600
     10 OAB         -4.4760    -0.6240    -0.2050 o          1 S30      -0.521000
     11 CAH         -2.6130    -2.0860     0.1020 ca         1 S30      -0.195600
     12 CAG         -3.3220    -3.3100     0.0920 ca         1 S30       0.000700
     13 CAA         -4.8080    -3.4170    -0.0930 c3         1 S30      -0.050800
     14 CAF         -2.5970    -4.4790     0.2580 ca         1 S30      -0.143000
     15 CAN         -1.2130    -4.4700     0.4300 ca         1 S30      -0.070000
     16 CAO         -0.5210    -3.2820     0.4340 ca         1 S30      -0.107000
     17 CAP         -1.2150    -2.0800     0.2690 ca         1 S30       0.192400
     18 NAQ         -0.4750    -0.9210     0.2760 nc         1 S30      -0.619100
     19 CAR         -1.0790     0.1920     0.1220 cd         1 S30       0.489900
     20 CAS         -0.2760     1.4720     0.1400 c3         1 S30       0.060300
     21 NAV          1.1250     1.1960     0.1910 na         1 S30      -0.007100
     22 NAU          1.8080     0.9400    -0.9330 nc         1 S30      -0.494100
     23 C6           1.8680     0.9760     1.2950 ca         1 S30       0.179500
     24 N1           1.4900     1.1110     2.5660 nb         1 S30      -0.234000
     25 C2           2.4720     0.8310     3.4020 ca         1 S30       0.200900
     26 N3           3.7190     0.4510     3.1270 nb         1 S30      -0.311000
     27 C4           4.0870     0.3190     1.8490 ca         1 S30       0.464900
     28 NBE          5.3330    -0.0580     1.5750 nv         1 S30      -1.063900
     29 C5           3.1270     0.5880     0.8500 ca         1 S30      -0.377900
     30 CAZ          3.0190     0.5840    -0.5650 cd         1 S30       0.456800
     31 CBD          4.0470     0.2630    -1.4850 ch         1 S30      -0.101200
     32 CBF          4.9860    -0.0210    -2.1810 c1         1 S30      -0.119100
     33 CBG          6.1460    -0.3710    -2.9910 c3         1 S30       0.249700
     34 OBH          7.1580    -0.8260    -2.1250 oh         1 S30      -0.658000
     35 HAT1        -1.8400     0.9070    -2.6880 hc         1 S30       0.051033
     36 HAT2        -3.5130     0.3930    -2.8240 hc         1 S30       0.051033
     37 HAT3        -2.9750     1.8590    -3.6340 hc         1 S30       0.051033
     38 HAM         -3.9730     3.7460    -2.6380 ha         1 S30       0.117000
     39 HAE         -4.6010     5.0710    -0.6660 ha         1 S30       0.117000
     40 HAD         -4.2250     4.1670     1.6150 ha         1 S30       0.120000
     41 HAC         -3.2120     1.9220     1.8810 ha         1 S30       0.128000
     42 HAA1        -5.1340    -2.9810    -1.0360 hc         1 S30       0.053033
     43 HAA2        -5.1030    -4.4660    -0.0860 hc         1 S30       0.053033
     44 HAA3        -5.3560    -2.9090     0.7000 hc         1 S30       0.053033
     45 HAF         -3.1220    -5.4260     0.2520 ha         1 S30       0.116000
     46 HAN         -0.6840    -5.4050     0.5590 ha         1 S30       0.117000
     47 HAO          0.5530    -3.2500     0.5610 ha         1 S30       0.136000
     48 HAS1        -0.4780     2.0860    -0.7380 h1         1 S30       0.097700
     49 HAS2        -0.5450     2.0720     1.0110 h1         1 S30       0.097700
     50 H2           2.2380     0.9170     4.4580 h5         1 S30       0.046100
     51 HBE1         5.9740    -0.2550     2.3250 hn         1 S30       0.510000
     52 HBE2         5.6580    -0.1810     0.6310 hn         1 S30       0.510000
     53 HBG1         5.8490    -1.1310    -3.7250 h1         1 S30       0.042200
     54 HBG2         6.4540     0.5130    -3.5630 h1         1 S30       0.042200
     55 HBH          7.9370    -1.0100    -2.6590 ho         1 S30       0.451000
@<TRIPOS>BOND
     1     1     2 1   
     2     1    35 1   
     3     1    36 1   
     4     1    37 1   
     5     2     3 ar  
     6     2     7 ar  
     7     3     4 ar  
     8     3    38 1   
     9     4     5 ar  
    10     4    39 1   
    11     5     6 ar  
    12     5    40 1   
    13     6     7 ar  
    14     6    41 1   
    15     7     8 1   
    16     8     9 1   
    17     8    19 1   
    18     9    10 2   
    19     9    11 1   
    20    11    12 ar  
    21    11    17 ar  
    22    12    13 1   
    23    12    14 ar  
    24    13    42 1   
    25    13    43 1   
    26    13    44 1   
    27    14    15 ar  
    28    14    45 1   
    29    15    16 ar  
    30    15    46 1   
    31    16    17 ar  
    32    16    47 1   
    33    17    18 1   
    34    18    19 2   
    35    19    20 1   
    36    20    21 1   
    37    20    48 1   
    38    20    49 1   
    39    21    22 1   
    40    21    23 1   
    41    22    30 2   
    42    23    24 ar  
    43    23    29 ar  
    44    24    25 ar  
    45    25    26 ar  
    46    25    50 1   
    47    26    27 ar  
    48    27    28 1   
    49    27    29 ar  
    50    28    51 1   
    51    28    52 1   
    52    29    30 1   
    53    30    31 1   
    54    31    32 3   
    55    32    33 1   
    56    33    34 1   
    57    33    53 1   
    58    33    54 1   
    59    34    55 1   
@<TRIPOS>SUBSTRUCTURE
     1 S30         1 TEMP              0 ****  ****    0 ROOT
