@<TRIPOS>MOLECULE
S30
   55    59     1     0     0
SMALL
No Charge or Current Charge


@<TRIPOS>ATOM
      1 CAT         -3.0590     1.3320    -2.4980 c3         1 S30      -0.053800
      2 CAL         -2.0070     1.8320    -1.5110 ca         1 S30      -0.052300
      3 CAM         -1.5320     3.1550    -1.6120 ca         1 S30      -0.109000
      4 CAE         -0.5910     3.6480    -0.6920 ca         1 S30      -0.096000
      5 CAD         -0.1280     2.8270     0.3480 ca         1 S30      -0.109000
      6 CAC         -0.5950     1.5080     0.4580 ca         1 S30      -0.093000
      7 CAK         -1.5110     0.9950    -0.4820 ca         1 S30       0.014600
      8 NAJ         -1.9630    -0.3620    -0.3460 n          1 S30      -0.263500
      9 CAI         -2.9890    -0.7470     0.5040 c          1 S30       0.581600
     10 OAB         -3.5660     0.0810     1.1960 o          1 S30      -0.521000
     11 CAH         -3.3200    -2.2060     0.4900 ca         1 S30      -0.195600
     12 CAG         -4.3480    -2.7880     1.2950 ca         1 S30       0.000700
     13 CAA         -5.2150    -1.9860     2.2650 c3         1 S30      -0.050800
     14 CAF         -4.5930    -4.1710     1.2090 ca         1 S30      -0.143000
     15 CAN         -3.8450    -4.9770     0.3460 ca         1 S30      -0.070000
     16 CAO         -2.8400    -4.4010    -0.4380 ca         1 S30      -0.107000
     17 CAP         -2.5640    -3.0240    -0.3790 ca         1 S30       0.192400
     18 NAQ         -1.5290    -2.5800    -1.2100 nc         1 S30      -0.619100
     19 CAR         -1.2590    -1.2720    -1.1410 cd         1 S30       0.489900
     20 CAS         -0.1000    -0.8680    -2.0440 c3         1 S30       0.060300
     21 NAV          1.1270    -0.3940    -1.3720 na         1 S30      -0.007100
     22 NAU          1.8710     0.6910    -1.8400 nc         1 S30      -0.494100
     23 C6           1.6300    -0.9020    -0.1820 ca         1 S30       0.179500
     24 N1           1.2510    -1.9200     0.6160 nb         1 S30      -0.234000
     25 C2           2.0020    -2.0990     1.7300 ca         1 S30       0.200900
     26 N3           3.0760    -1.3630     2.1090 nb         1 S30      -0.311000
     27 C4           3.4210    -0.3600     1.2900 ca         1 S30       0.464900
     28 NBE          4.4880     0.3760     1.6700 nv         1 S30      -1.063900
     29 C5           2.7010    -0.1200     0.1290 ca         1 S30      -0.377900
     30 CAZ          2.8280     0.8590    -0.9190 cd         1 S30       0.456800
     31 CBD          3.7730     1.9080    -1.0740 ch         1 S30      -0.101200
     32 CBF          4.5950     2.7960    -1.1830 c1         1 S30      -0.119100
     33 CBG          5.6000     3.8570    -1.2940 c3         1 S30       0.249700
     34 OBH          6.6530     3.6360    -0.3480 oh         1 S30      -0.658000
     35 HAT1        -2.6500     0.5670    -3.1680 hc         1 S30       0.051033
     36 HAT2        -3.9170     0.8950    -1.9730 hc         1 S30       0.051033
     37 HAT3        -3.4440     2.1440    -3.1260 hc         1 S30       0.051033
     38 HAM         -1.8960     3.8070    -2.4020 ha         1 S30       0.117000
     39 HAE         -0.2300     4.6700    -0.7790 ha         1 S30       0.117000
     40 HAD          0.5920     3.2110     1.0670 ha         1 S30       0.120000
     41 HAC         -0.2350     0.8760     1.2660 ha         1 S30       0.128000
     42 HAA1        -5.7930    -1.2180     1.7380 hc         1 S30       0.053033
     43 HAA2        -5.9370    -2.6210     2.7920 hc         1 S30       0.053033
     44 HAA3        -4.6040    -1.4960     3.0320 hc         1 S30       0.053033
     45 HAF         -5.3720    -4.6300     1.8140 ha         1 S30       0.116000
     46 HAN         -4.0410    -6.0450     0.2850 ha         1 S30       0.117000
     47 HAO         -2.2600    -5.0340    -1.1050 ha         1 S30       0.136000
     48 HAS1         0.1810    -1.7230    -2.6700 h1         1 S30       0.097700
     49 HAS2        -0.4430    -0.0850    -2.7280 h1         1 S30       0.097700
     50 H2           1.7120    -2.9160     2.3880 h5         1 S30       0.046100
     51 HBE1         5.0840     0.0060     2.4050 hn         1 S30       0.510000
     52 HBE2         4.9250     0.9970     0.9950 hn         1 S30       0.510000
     53 HBG1         5.9960     3.8640    -2.3190 h1         1 S30       0.042200
     54 HBG2         5.1140     4.8250    -1.1130 h1         1 S30       0.042200
     55 HBH          7.2940     4.3710    -0.4680 ho         1 S30       0.451000
@<TRIPOS>BOND
     1     1     2 1   
     2     1    35 1   
     3     1    36 1   
     4     1    37 1   
     5     2     3 ar  
     6     2     7 ar  
     7     3     4 ar  
     8     3    38 1   
     9     4     5 ar  
    10     4    39 1   
    11     5     6 ar  
    12     5    40 1   
    13     6     7 ar  
    14     6    41 1   
    15     7     8 1   
    16     8     9 1   
    17     8    19 1   
    18     9    10 2   
    19     9    11 1   
    20    11    12 ar  
    21    11    17 ar  
    22    12    13 1   
    23    12    14 ar  
    24    13    42 1   
    25    13    43 1   
    26    13    44 1   
    27    14    15 ar  
    28    14    45 1   
    29    15    16 ar  
    30    15    46 1   
    31    16    17 ar  
    32    16    47 1   
    33    17    18 1   
    34    18    19 2   
    35    19    20 1   
    36    20    21 1   
    37    20    48 1   
    38    20    49 1   
    39    21    22 1   
    40    21    23 1   
    41    22    30 2   
    42    23    24 ar  
    43    23    29 ar  
    44    24    25 ar  
    45    25    26 ar  
    46    25    50 1   
    47    26    27 ar  
    48    27    28 1   
    49    27    29 ar  
    50    28    51 1   
    51    28    52 1   
    52    29    30 1   
    53    30    31 1   
    54    31    32 3   
    55    32    33 1   
    56    33    34 1   
    57    33    53 1   
    58    33    54 1   
    59    34    55 1   
@<TRIPOS>SUBSTRUCTURE
     1 S30         1 TEMP              0 ****  ****    0 ROOT
