@<TRIPOS>MOLECULE
S33
   81    84     1     0     0
SMALL
No Charge or Current Charge


@<TRIPOS>ATOM
      1 S26         -1.4240     3.3960    -1.8580 sy         1 S33       1.149600
      2 Cl4          3.6130     2.9050     0.3140 cl         1 S33      -0.173000
      3 C1          -0.3290     3.4940    -0.4360 ca         1 S33      -0.352500
      4 C45          1.8240     3.9740     4.2070 c3         1 S33       0.144900
      5 O44          2.2630     3.6740     2.8710 os         1 S33      -0.321100
      6 C43          1.3940     3.6390     1.7950 ca         1 S33       0.198100
      7 O5          -2.5340     4.3380    -1.7000 o          1 S33      -0.524500
      8 O42         -0.6160     3.3320    -3.0750 o          1 S33      -0.524500
      9 C47         -0.8360     3.8800     0.8200 ca         1 S33       0.033000
     10 C40          1.0460     3.2150    -0.5820 ca         1 S33       0.036000
     11 C46          0.0210     3.9450     1.9310 ca         1 S33      -0.227000
     12 C41          1.9010     3.2820     0.5290 ca         1 S33       0.049000
     13 C8          -0.2760     0.3730    -0.7050 c          1 S33       0.574100
     14 N3          -2.1060     1.8730    -1.7280 n7         1 S33      -0.846300
     15 C31         -6.4810     0.8270    -0.4840 c3         1 S33       0.148300
     16 C32         -7.3660    -0.3790    -0.2000 ca         1 S33      -0.071300
     17 C33         -8.0790    -0.9980    -1.2440 ca         1 S33      -0.103500
     18 C34         -8.8940    -2.1140    -0.9830 ca         1 S33      -0.070000
     19 C35         -9.0000    -2.6220     0.3260 ca         1 S33      -0.020000
     20 C36         -8.2860    -2.0060     1.3710 ca         1 S33      -0.070000
     21 C37         -7.4730    -0.8890     1.1080 ca         1 S33      -0.103500
     22 C38         -9.8320    -3.7640     0.5930 cg         1 S33       0.326000
     23 N39        -10.5150    -4.6870     0.8070 n1         1 S33      -0.456000
     24 C6          -1.7380     0.9420    -0.6150 c3         1 S33       0.144500
     25 C7          -2.7700    -0.2080    -0.5930 c3         1 S33      -0.154400
     26 C28         -4.0850     0.2580     0.0240 c          1 S33       0.610100
     27 O29         -4.2100     0.4400     1.2260 o          1 S33      -0.589100
     28 N30         -5.1260     0.4210    -0.8590 ns         1 S33      -0.502900
     29 N10          0.4050     0.0430     0.4890 n          1 S33      -0.381800
     30 C11          1.8060    -0.4620     0.4870 c5         1 S33       0.022700
     31 C15          1.9420    -1.9570     0.0570 c          1 S33       0.599100
     32 O16          1.0460    -2.7800    -0.0890 o          1 S33      -0.605100
     33 C12          2.1830    -0.3010     1.9930 c5         1 S33      -0.081400
     34 C13          0.8460    -0.6270     2.7040 c5         1 S33      -0.094400
     35 C14         -0.1740     0.1640     1.8470 c5         1 S33       0.105000
     36 N17          3.2690    -2.2450    -0.1750 ns         1 S33      -0.498900
     37 C18          3.7660    -3.5570    -0.5790 c3         1 S33       0.142300
     38 C19          5.2740    -3.6530    -0.3740 ca         1 S33      -0.107300
     39 C20          5.8460    -3.9440     0.8930 ca         1 S33      -0.064300
     40 C25          4.9960    -4.1820     2.1430 c3         1 S33       0.193100
     41 N27          4.7770    -5.6220     2.3870 n8         1 S33      -1.004200
     42 C21          7.2500    -4.0140     1.0170 ca         1 S33      -0.088000
     43 C22          8.0810    -3.7960    -0.0950 ca         1 S33      -0.098000
     44 C23          7.5130    -3.5040    -1.3430 ca         1 S33       0.117000
     45 Cl2          8.5510    -3.2270    -2.7360 cl         1 S33      -0.201000
     46 C24          6.1190    -3.4330    -1.4820 ca         1 S33      -0.097000
     47 H45          1.3890     4.9800     4.2590 h1         1 S33       0.050033
     48 H45A         1.0740     3.2460     4.5430 h1         1 S33       0.050033
     49 H45B         2.6710     3.9340     4.9020 h1         1 S33       0.050033
     50 H47         -1.8940     4.1160     0.9420 ha         1 S33       0.146000
     51 H40          1.4580     2.9300    -1.5490 ha         1 S33       0.152000
     52 H46         -0.4010     4.2330     2.8900 ha         1 S33       0.126000
     53 HN3         -1.7800     1.4760    -2.6110 hn         1 S33       0.498000
     54 H31         -6.4400     1.4790     0.3990 h1         1 S33       0.064200
     55 H31A        -6.9120     1.4140    -1.3060 h1         1 S33       0.064200
     56 H33         -8.0030    -0.6150    -2.2590 ha         1 S33       0.119000
     57 H34         -9.4400    -2.5830    -1.8000 ha         1 S33       0.125500
     58 H36         -8.3590    -2.3900     2.3870 ha         1 S33       0.125500
     59 H37         -6.9220    -0.4220     1.9220 ha         1 S33       0.119000
     60 H6          -1.8200     1.4630     0.3470 h1         1 S33       0.101700
     61 H7          -2.9250    -0.5760    -1.6140 hc         1 S33       0.076700
     62 H7A         -2.3800    -1.0200     0.0300 hc         1 S33       0.076700
     63 HN30        -4.9230     0.2610    -1.8390 hn         1 S33       0.319500
     64 H11          2.4540     0.1450    -0.1590 h1         1 S33       0.086700
     65 H12          3.0030    -0.9560     2.3100 hc         1 S33       0.058200
     66 H12A         2.4950     0.7270     2.2110 hc         1 S33       0.058200
     67 H13          0.6320    -1.7030     2.6780 hc         1 S33       0.065700
     68 H13A         0.8360    -0.3180     3.7550 hc         1 S33       0.065700
     69 H14         -0.2200     1.2160     2.1560 h1         1 S33       0.056700
     70 H14A        -1.1810    -0.2660     1.9230 h1         1 S33       0.056700
     71 HN17         3.9390    -1.4980    -0.0390 hn         1 S33       0.321500
     72 H18          3.2540    -4.3380    -0.0020 h1         1 S33       0.065700
     73 H18A         3.5190    -3.7150    -1.6370 h1         1 S33       0.065700
     74 H25          5.5070    -3.7540     3.0170 h1         1 S33       0.042200
     75 H25A         4.0230    -3.6790     2.0580 h1         1 S33       0.042200
     76 HN27         4.1420    -5.7320     3.1870 hn         1 S33       0.400000
     77 HN2A         4.2500    -6.0150     1.6000 hn         1 S33       0.400000
     78 H21          7.6980    -4.2420     1.9820 ha         1 S33       0.140000
     79 H22          9.1610    -3.8530     0.0110 ha         1 S33       0.131000
     80 H24          5.6950    -3.2030    -2.4560 ha         1 S33       0.129000
     81 O9           0.2810     0.2370    -1.7900 o          1 S33      -0.613100
@<TRIPOS>BOND
     1     1     3 1   
     2     1     7 2   
     3     1     8 2   
     4     1    14 1   
     5     2    12 1   
     6     3     9 ar  
     7     3    10 ar  
     8     4     5 1   
     9     4    47 1   
    10     4    48 1   
    11     4    49 1   
    12     5     6 1   
    13     6    11 ar  
    14     6    12 ar  
    15     9    11 ar  
    16     9    50 1   
    17    10    12 ar  
    18    10    51 1   
    19    11    52 1   
    20    13    24 1   
    21    13    29 1   
    22    13    81 2   
    23    14    24 1   
    24    14    53 1   
    25    15    16 1   
    26    15    28 1   
    27    15    54 1   
    28    15    55 1   
    29    16    17 ar  
    30    16    21 ar  
    31    17    18 ar  
    32    17    56 1   
    33    18    19 ar  
    34    18    57 1   
    35    19    20 ar  
    36    19    22 1   
    37    20    21 ar  
    38    20    58 1   
    39    21    59 1   
    40    22    23 3   
    41    24    25 1   
    42    24    60 1   
    43    25    26 1   
    44    25    61 1   
    45    25    62 1   
    46    26    27 2   
    47    26    28 1   
    48    28    63 1   
    49    29    30 1   
    50    29    35 1   
    51    30    31 1   
    52    30    33 1   
    53    30    64 1   
    54    31    32 2   
    55    31    36 1   
    56    33    34 1   
    57    33    65 1   
    58    33    66 1   
    59    34    35 1   
    60    34    67 1   
    61    34    68 1   
    62    35    69 1   
    63    35    70 1   
    64    36    37 1   
    65    36    71 1   
    66    37    38 1   
    67    37    72 1   
    68    37    73 1   
    69    38    39 ar  
    70    38    46 ar  
    71    39    40 1   
    72    39    42 ar  
    73    40    41 1   
    74    40    74 1   
    75    40    75 1   
    76    41    76 1   
    77    41    77 1   
    78    42    43 ar  
    79    42    78 1   
    80    43    44 ar  
    81    43    79 1   
    82    44    45 1   
    83    44    46 ar  
    84    46    80 1   
@<TRIPOS>SUBSTRUCTURE
     1 S33         1 TEMP              0 ****  ****    0 ROOT
