@<TRIPOS>MOLECULE
S33
   81    84     1     0     0
SMALL
bcc


@<TRIPOS>ATOM
      1 S26         -1.8380     3.5810    -0.6990 sy         1 S33       1.291200
      2 CL4          3.5600     3.3150    -0.6370 cl         1 S33      -0.081400
      3 C1          -0.3160     3.6260     0.1970 ca         1 S33      -0.352500
      4 C45          3.3480     3.5380     3.6060 c3         1 S33       0.121700
      5 O44          3.2710     3.4610     2.1900 os         1 S33      -0.297900
      6 C43          2.0800     3.5290     1.6060 ca         1 S33       0.198100
      7 O5          -2.9010     3.8750     0.2440 o          1 S33      -0.595300
      8 O42         -1.7050     4.3600    -1.9190 o          1 S33      -0.595300
      9 C47         -0.3260     3.6770     1.5800 ca         1 S33       0.015000
     10 C40          0.8830     3.5360    -0.5040 ca         1 S33       0.018000
     11 C46          0.8680     3.6360     2.2820 ca         1 S33      -0.245000
     12 C41          2.0630     3.4810     0.2010 ca         1 S33      -0.042600
     13 C8          -0.3090     0.5630    -0.2410 c          1 S33       0.641100
     14 N3          -2.0330     2.0120    -1.1930 n7         1 S33      -0.791100
     15 C31         -6.2510     0.1080    -1.6210 c3         1 S33       0.148300
     16 C32         -7.0840    -0.8620    -0.8200 ca         1 S33      -0.071300
     17 C33         -6.7380    -2.2080    -0.7330 ca         1 S33      -0.121500
     18 C34         -7.5360    -3.0990    -0.0380 ca         1 S33      -0.088000
     19 C35         -8.7000    -2.6440     0.5810 ca         1 S33      -0.020000
     20 C36         -9.0560    -1.2980     0.5020 ca         1 S33      -0.088000
     21 C37         -8.2460    -0.4200    -0.1940 ca         1 S33      -0.121500
     22 C38         -9.5280    -3.5590     1.2970 cg         1 S33       0.236800
     23 N39        -10.1990    -4.2990     1.8710 n1         1 S33      -0.366800
     24 C6          -1.7880     0.9550    -0.2240 c3         1 S33       0.144500
     25 C7          -2.6330    -0.2640    -0.5890 c3         1 S33      -0.154400
     26 C28         -4.1040     0.0760    -0.4820 c          1 S33       0.677100
     27 O29         -4.5810     0.5340     0.5440 o          1 S33      -0.589100
     28 N30         -4.8370    -0.1620    -1.5810 ns         1 S33      -0.569900
     29 N10          0.2570     0.2150     0.9160 n          1 S33      -0.448800
     30 C11          1.6460    -0.1950     0.9330 c5         1 S33       0.022700
     31 C15          1.8150    -1.5100     0.1760 c          1 S33       0.666100
     32 O16          0.9270    -2.3440     0.1400 o          1 S33      -0.605100
     33 C12          1.9400    -0.3580     2.4300 c5         1 S33      -0.081400
     34 C13          0.5920    -0.7510     3.0220 c5         1 S33      -0.094400
     35 C14         -0.4020     0.0730     2.2120 c5         1 S33       0.105000
     36 N17          3.0270    -1.6730    -0.3770 ns         1 S33      -0.565900
     37 C18          3.4380    -2.8530    -1.1060 c3         1 S33       0.142300
     38 C19          4.8240    -3.2990    -0.7170 ca         1 S33      -0.107300
     39 C20          5.1100    -3.7940     0.5640 ca         1 S33      -0.064300
     40 C25          4.0410    -3.8830     1.6260 c3         1 S33       0.193100
     41 N27          4.3990    -4.7900     2.7010 n8         1 S33      -0.893800
     42 C21          6.4140    -4.1890     0.8440 ca         1 S33      -0.106000
     43 C22          7.4260    -4.1010    -0.1020 ca         1 S33      -0.116000
     44 C23          7.1220    -3.6090    -1.3570 ca         1 S33       0.025400
     45 CL2          8.3650    -3.4910    -2.5620 cl         1 S33      -0.109400
     46 C24          5.8330    -3.2080    -1.6670 ca         1 S33      -0.115000
     47 H45          2.9370     4.4770     3.9800 h1         1 S33       0.050033
     48 H45A         2.8310     2.7020     4.0840 h1         1 S33       0.050033
     49 H45B         4.4040     3.4860     3.8550 h1         1 S33       0.050033
     50 H47         -1.2540     3.7510     2.1300 ha         1 S33       0.164000
     51 H40          0.9050     3.4980    -1.5850 ha         1 S33       0.170000
     52 H46          0.8340     3.6800     3.3610 ha         1 S33       0.144000
     53 HN3         -1.5730     1.8390    -2.0840 hn         1 S33       0.442800
     54 H31         -6.4500     1.1270    -1.2820 h1         1 S33       0.064200
     55 H31A        -6.5600     0.0610    -2.6660 h1         1 S33       0.064200
     56 H33         -5.8360    -2.5700    -1.2080 ha         1 S33       0.137000
     57 H34         -7.2600    -4.1440     0.0230 ha         1 S33       0.143500
     58 H36         -9.9560    -0.9440     0.9880 ha         1 S33       0.143500
     59 H37         -8.5200     0.6260    -0.2450 ha         1 S33       0.137000
     60 H6          -2.1020     1.3090     0.7600 h1         1 S33       0.101700
     61 H7          -2.3610    -0.6180    -1.5850 hc         1 S33       0.076700
     62 H7A         -2.4190    -1.0800     0.1070 hc         1 S33       0.076700
     63 HN30        -4.3950    -0.5370    -2.4030 hn         1 S33       0.319500
     64 H11          2.2770     0.5790     0.4880 h1         1 S33       0.086700
     65 H12          2.7330    -1.0780     2.6290 hc         1 S33       0.058200
     66 H12A         2.2690     0.6020     2.8330 hc         1 S33       0.058200
     67 H13          0.4060    -1.8160     2.8790 hc         1 S33       0.065700
     68 H13A         0.5200    -0.5390     4.0880 hc         1 S33       0.065700
     69 H14         -0.5640     1.0540     2.6650 h1         1 S33       0.056700
     70 H14A        -1.3680    -0.4240     2.1230 h1         1 S33       0.056700
     71 HN17         3.6770    -0.9020    -0.3520 hn         1 S33       0.321500
     72 H18          2.7100    -3.6420    -0.9140 h1         1 S33       0.065700
     73 H18A         3.4090    -2.6560    -2.1800 h1         1 S33       0.065700
     74 H25          3.9120    -2.8870     2.0610 h1         1 S33       0.042200
     75 H25A         3.0790    -4.1280     1.1570 h1         1 S33       0.042200
     76 HN27         3.7280    -4.6930     3.4510 hn         1 S33       0.344800
     77 HN2A         4.3240    -5.7470     2.3790 hn         1 S33       0.344800
     78 H21          6.6450    -4.5780     1.8260 ha         1 S33       0.158000
     79 H22          8.4310    -4.4140     0.1430 ha         1 S33       0.149000
     80 H24          5.6060    -2.8250    -2.6550 ha         1 S33       0.147000
     81 O9           0.3040     0.5630    -1.3010 o          1 S33      -0.613100
@<TRIPOS>BOND
     1     1     3 1   
     2     1     7 2   
     3     1     8 2   
     4     1    14 1   
     5     2    12 1   
     6     3     9 ar  
     7     3    10 ar  
     8     4     5 1   
     9     4    47 1   
    10     4    48 1   
    11     4    49 1   
    12     5     6 1   
    13     6    11 ar  
    14     6    12 ar  
    15     9    11 ar  
    16     9    50 1   
    17    10    12 ar  
    18    10    51 1   
    19    11    52 1   
    20    13    24 1   
    21    13    29 1   
    22    13    81 2   
    23    14    24 1   
    24    14    53 1   
    25    15    16 1   
    26    15    28 1   
    27    15    54 1   
    28    15    55 1   
    29    16    17 ar  
    30    16    21 ar  
    31    17    18 ar  
    32    17    56 1   
    33    18    19 ar  
    34    18    57 1   
    35    19    20 ar  
    36    19    22 1   
    37    20    21 ar  
    38    20    58 1   
    39    21    59 1   
    40    22    23 3   
    41    24    25 1   
    42    24    60 1   
    43    25    26 1   
    44    25    61 1   
    45    25    62 1   
    46    26    27 2   
    47    26    28 1   
    48    28    63 1   
    49    29    30 1   
    50    29    35 1   
    51    30    31 1   
    52    30    33 1   
    53    30    64 1   
    54    31    32 2   
    55    31    36 1   
    56    33    34 1   
    57    33    65 1   
    58    33    66 1   
    59    34    35 1   
    60    34    67 1   
    61    34    68 1   
    62    35    69 1   
    63    35    70 1   
    64    36    37 1   
    65    36    71 1   
    66    37    38 1   
    67    37    72 1   
    68    37    73 1   
    69    38    39 ar  
    70    38    46 ar  
    71    39    40 1   
    72    39    42 ar  
    73    40    41 1   
    74    40    74 1   
    75    40    75 1   
    76    41    76 1   
    77    41    77 1   
    78    42    43 ar  
    79    42    78 1   
    80    43    44 ar  
    81    43    79 1   
    82    44    45 1   
    83    44    46 ar  
    84    46    80 1   
@<TRIPOS>SUBSTRUCTURE
     1 S33         1 TEMP              0 ****  ****    0 ROOT
