@<TRIPOS>MOLECULE
S34
   22    22     1     0     0
SMALL
abcg2


@<TRIPOS>ATOM
      1 N1          14.9660    22.0100    11.9540 nb         1 S34      -0.661000
      2 N3          18.8160    21.9910     4.7920 n1         1 S34      -0.432000
      3 C4          15.5520    20.6460    10.0750 ca         1 S34      -0.154500
      4 C5          14.4380    21.0760     9.3670 ca         1 S34      -0.059300
      5 C6          14.1000    20.5580     7.9920 c3         1 S34       0.150300
      6 C7          16.1250    20.9490     6.7100 c          1 S34       0.604100
      7 C8          17.2620    20.2650     5.9570 c3         1 S34      -0.106300
      8 C1          13.5960    21.9880     9.9930 ca         1 S34      -0.154500
      9 C2          13.9000    22.4190    11.2740 ca         1 S34       0.339400
     10 C3          15.7690    21.1390    11.3520 ca         1 S34       0.339400
     11 C9          18.1190    21.2390     5.3110 c1         1 S34       0.309900
     12 N2          15.2380    20.0960     7.2390 ns         1 S34      -0.511900
     13 O1          16.0520    22.1580     6.8140 o          1 S34      -0.560100
     14 H1          16.2520    19.9390     9.6470 ha         1 S34       0.120000
     15 H2          13.5670    21.3280     7.4330 h1         1 S34       0.064200
     16 H3          13.4140    19.7160     8.0910 h1         1 S34       0.064200
     17 H4          16.8700    19.5790     5.2030 hc         1 S34       0.085200
     18 H5          17.8640    19.6670     6.6450 hc         1 S34       0.085200
     19 H6          12.7140    22.3670     9.4920 ha         1 S34       0.120000
     20 H7          13.2540    23.1340    11.7710 h4         1 S34       0.019100
     21 H8          16.6370    20.8120    11.9150 h4         1 S34       0.019100
     22 H9          15.3590    19.1050     7.1090 hn         1 S34       0.319500
@<TRIPOS>BOND
     1     1     9 ar  
     2     1    10 ar  
     3     2    11 3   
     4     3     4 ar  
     5     3    10 ar  
     6     3    14 1   
     7     4     5 1   
     8     4     8 ar  
     9     5    12 1   
    10     5    15 1   
    11     5    16 1   
    12     6     7 1   
    13     6    12 1   
    14     6    13 2   
    15     7    11 1   
    16     7    17 1   
    17     7    18 1   
    18     8     9 ar  
    19     8    19 1   
    20     9    20 1   
    21    10    21 1   
    22    12    22 1   
@<TRIPOS>SUBSTRUCTURE
     1 S34         1 TEMP              0 ****  ****    0 ROOT
