@<TRIPOS>MOLECULE
S34
   22    22     1     0     0
SMALL
No Charge or Current Charge


@<TRIPOS>ATOM
      1 N1          14.7100    21.6960    12.1250 nb         1 S34      -0.661000
      2 N3          17.4140    20.7090     3.4610 n1         1 S34      -0.432000
      3 C4          14.7190    19.9280    10.4640 ca         1 S34      -0.154500
      4 C5          14.4450    20.8450     9.4330 ca         1 S34      -0.059300
      5 C6          14.3100    20.3890     7.9880 c3         1 S34       0.150300
      6 C7          16.1940    21.3880     6.6510 c          1 S34       0.604100
      7 C8          17.5620    21.1070     6.0500 c3         1 S34      -0.106300
      8 C1          14.3100    22.2000     9.7870 ca         1 S34      -0.154500
      9 C2          14.4490    22.5790    11.1330 ca         1 S34       0.339400
     10 C3          14.8420    20.3920    11.7860 ca         1 S34       0.339400
     11 C9          17.4650    20.8940     4.6100 c1         1 S34       0.309900
     12 N2          15.6120    20.3330     7.3190 ns         1 S34      -0.511900
     13 O1          15.6440    22.4760     6.5480 o          1 S34      -0.560100
     14 H1          14.8380    18.8690    10.2520 ha         1 S34       0.120000
     15 H2          13.6420    21.0680     7.4410 h1         1 S34       0.064200
     16 H3          13.8570    19.3890     7.9600 h1         1 S34       0.064200
     17 H4          17.9990    20.2050     6.4910 hc         1 S34       0.085200
     18 H5          18.2140    21.9700     6.2190 hc         1 S34       0.085200
     19 H6          14.1030    22.9540     9.0330 ha         1 S34       0.120000
     20 H7          14.3480    23.6230    11.4270 h4         1 S34       0.019100
     21 H8          15.0540    19.6980    12.5990 h4         1 S34       0.019100
     22 H9          16.1350    19.4660     7.3600 hn         1 S34       0.319500
@<TRIPOS>BOND
     1     1     9 ar  
     2     1    10 ar  
     3     2    11 3   
     4     3     4 ar  
     5     3    10 ar  
     6     3    14 1   
     7     4     5 1   
     8     4     8 ar  
     9     5    12 1   
    10     5    15 1   
    11     5    16 1   
    12     6     7 1   
    13     6    12 1   
    14     6    13 2   
    15     7    11 1   
    16     7    17 1   
    17     7    18 1   
    18     8     9 ar  
    19     8    19 1   
    20     9    20 1   
    21    10    21 1   
    22    12    22 1   
@<TRIPOS>SUBSTRUCTURE
     1 S34         1 TEMP              0 ****  ****    0 ROOT
