@<TRIPOS>MOLECULE
S35
   64    66     1     0     0
SMALL
No Charge or Current Charge


@<TRIPOS>ATOM
      1 C35          5.8040     2.7830     0.4810 c3         1 S35      -0.050800
      2 C30          5.5810     1.8880    -0.7350 ca         1 S35      -0.058300
      3 C31          6.1290     2.2840    -1.9730 ca         1 S35      -0.123000
      4 C32          5.9610     1.4930    -3.1190 ca         1 S35      -0.130000
      5 C33          5.2430     0.2920    -3.0390 ca         1 S35      -0.125000
      6 C34          4.6920    -0.1140    -1.8140 ca         1 S35      -0.101000
      7 C29          4.8470     0.6740    -0.6510 ca         1 S35      -0.062300
      8 C24          4.2240     0.1860     0.6660 c3         1 S35       0.166000
      9 C25          4.9990    -1.0180     1.2430 c3         1 S35      -0.226400
     10 C26          4.4450    -1.3950     2.6200 c          1 S35       0.716000
     11 O28          4.8820    -0.8030     3.5940 o          1 S35      -0.729500
     12 O27          3.5750    -2.2500     2.6790 o          1 S35      -0.729500
     13 N23          2.8070    -0.1310     0.4860 ns         1 S35      -0.455900
     14 C21          1.7730     0.7790     0.5710 c          1 S35       0.524600
     15 O22          1.9740     1.9640     0.8210 o          1 S35      -0.626100
     16 C10          0.4190     0.1700     0.3280 cc         1 S35       0.239500
     17 N9           0.1970    -1.1230     0.0520 nd         1 S35      -0.474800
     18 C11         -0.7660     0.9580     0.3840 cc         1 S35      -0.260000
     19 C12         -1.7750     0.0930     0.1230 cd         1 S35       0.056100
     20 O13         -3.1260     0.3110     0.0660 os         1 S35      -0.323100
     21 C14         -3.6370     1.6360     0.3030 c3         1 S35       0.139600
     22 C15         -5.1930     1.6050     0.1840 c3         1 S35       0.172300
     23 C17         -5.9100     2.9800     0.4720 c3         1 S35      -0.076000
     24 C19         -5.4850     4.0820    -0.5430 c3         1 S35      -0.086433
     25 C20         -7.4530     2.7950     0.3880 c3         1 S35      -0.086433
     26 C18         -5.5740     3.4730     1.9080 c3         1 S35      -0.086433
     27 O16         -5.5740     1.1090    -1.1160 oh         1 S35      -0.642000
     28 N8          -1.1780    -1.1400    -0.0950 na         1 S35       0.204000
     29 C6          -1.9960    -2.2440    -0.3170 ca         1 S35      -0.012200
     30 C5          -2.2250    -3.1700     0.7210 ca         1 S35      -0.064000
     31 C4          -3.0530    -4.2860     0.5040 ca         1 S35      -0.127000
     32 C3          -3.6560    -4.4840    -0.7500 ca         1 S35      -0.082000
     33 C2          -3.4280    -3.5660    -1.7890 ca         1 S35      -0.155000
     34 C1          -2.6010    -2.4500    -1.5740 ca         1 S35       0.200000
     35 F7          -2.3870    -1.5830    -2.5900 f          1 S35      -0.157000
     36 H351         4.8540     3.1870     0.8520 hc         1 S35       0.044367
     37 H352         6.2820     2.2290     1.2980 hc         1 S35       0.044367
     38 H353         6.4510     3.6370     0.2480 hc         1 S35       0.044367
     39 H31          6.6910     3.2120    -2.0490 ha         1 S35       0.094000
     40 H32          6.3890     1.8090    -4.0680 ha         1 S35       0.092000
     41 H33          5.1130    -0.3250    -3.9250 ha         1 S35       0.096000
     42 H34          4.1390    -1.0490    -1.7690 ha         1 S35       0.113000
     43 H24          4.2760     0.9850     1.4160 h1         1 S35       0.095700
     44 H251         4.8770    -1.8470     0.5350 hc         1 S35       0.031700
     45 H252         6.0350    -0.6710     1.3400 hc         1 S35       0.031700
     46 H23          2.5410    -1.0930     0.3070 hn         1 S35       0.341500
     47 H11         -0.8180     2.0190     0.6000 ha         1 S35       0.158000
     48 H141        -3.3480     1.9680     1.3080 h1         1 S35       0.048700
     49 H142        -3.2170     2.3410    -0.4250 h1         1 S35       0.048700
     50 H15         -5.5440     0.8970     0.9490 h1         1 S35       0.084700
     51 H16         -5.1210     1.6670    -1.7820 ho         1 S35       0.438000
     52 H191        -5.7220     3.7920    -1.5740 hc         1 S35       0.037033
     53 H192        -6.0120     5.0220    -0.3370 hc         1 S35       0.037033
     54 H193        -4.4110     4.2910    -0.4850 hc         1 S35       0.037033
     55 H201        -7.7920     2.0130     1.0790 hc         1 S35       0.037033
     56 H202        -7.9760     3.7230     0.6500 hc         1 S35       0.037033
     57 H203        -7.7710     2.5140    -0.6230 hc         1 S35       0.037033
     58 H181        -4.5150     3.7390     2.0080 hc         1 S35       0.037033
     59 H182        -6.1570     4.3680     2.1620 hc         1 S35       0.037033
     60 H183        -5.8050     2.7020     2.6530 hc         1 S35       0.037033
     61 H5          -1.7610    -3.0210     1.6940 ha         1 S35       0.131000
     62 H4          -3.2270    -4.9960     1.3090 ha         1 S35       0.116000
     63 H3          -4.2960    -5.3490    -0.9160 ha         1 S35       0.112000
     64 H2          -3.8890    -3.7160    -2.7620 ha         1 S35       0.131000
@<TRIPOS>BOND
     1     1     2 1   
     2     1    36 1   
     3     1    37 1   
     4     1    38 1   
     5     2     3 ar  
     6     2     7 ar  
     7     3     4 ar  
     8     3    39 1   
     9     4     5 ar  
    10     4    40 1   
    11     5     6 ar  
    12     5    41 1   
    13     6     7 ar  
    14     6    42 1   
    15     7     8 1   
    16     8     9 1   
    17     8    13 1   
    18     8    43 1   
    19     9    10 1   
    20     9    44 1   
    21     9    45 1   
    22    10    11 1   
    23    10    12 1   
    24    13    14 1   
    25    13    46 1   
    26    14    15 2   
    27    14    16 1   
    28    16    17 2   
    29    16    18 1   
    30    17    28 1   
    31    18    19 2   
    32    18    47 1   
    33    19    20 1   
    34    19    28 1   
    35    20    21 1   
    36    21    22 1   
    37    21    48 1   
    38    21    49 1   
    39    22    23 1   
    40    22    27 1   
    41    22    50 1   
    42    23    24 1   
    43    23    25 1   
    44    23    26 1   
    45    24    52 1   
    46    24    53 1   
    47    24    54 1   
    48    25    55 1   
    49    25    56 1   
    50    25    57 1   
    51    26    58 1   
    52    26    59 1   
    53    26    60 1   
    54    27    51 1   
    55    28    29 1   
    56    29    30 ar  
    57    29    34 ar  
    58    30    31 ar  
    59    30    61 1   
    60    31    32 ar  
    61    31    62 1   
    62    32    33 ar  
    63    32    63 1   
    64    33    34 ar  
    65    33    64 1   
    66    34    35 1   
@<TRIPOS>SUBSTRUCTURE
     1 S35         1 TEMP              0 ****  ****    0 ROOT
