@<TRIPOS>MOLECULE
S35
   64    66     1     0     0
SMALL
abcg2


@<TRIPOS>ATOM
      1 C35          6.1570     2.1560     0.8350 c3         1 S35      -0.050800
      2 C30          5.6120     1.8240    -0.5260 ca         1 S35      -0.058300
      3 C31          6.1110     2.4820    -1.6480 ca         1 S35      -0.123000
      4 C32          5.6280     2.2150    -2.9220 ca         1 S35      -0.130000
      5 C33          4.6270     1.2700    -3.0870 ca         1 S35      -0.125000
      6 C34          4.1220     0.6080    -1.9770 ca         1 S35      -0.101000
      7 C29          4.5970     0.8730    -0.6970 ca         1 S35      -0.062300
      8 C24          4.0670     0.0910     0.4870 c3         1 S35       0.166000
      9 C25          4.8310    -1.2150     0.6580 c3         1 S35      -0.226400
     10 C26          4.4920    -1.9800     1.9540 c          1 S35       0.716000
     11 O28          4.2720    -1.2920     2.9700 o          1 S35      -0.729500
     12 O27          4.5040    -3.2240     1.8830 o          1 S35      -0.729500
     13 N23          2.6540    -0.2020     0.3600 ns         1 S35      -0.455900
     14 C21          1.7150     0.7430     0.4950 c          1 S35       0.524600
     15 O22          1.9610     1.9200     0.7180 o          1 S35      -0.626100
     16 C10          0.3140     0.2790     0.3570 cc         1 S35       0.239500
     17 N9           0.0120    -0.9970     0.2500 nd         1 S35      -0.474800
     18 C11         -0.8260     1.1040     0.3340 cc         1 S35      -0.260000
     19 C12         -1.8640     0.2130     0.1980 cd         1 S35       0.056100
     20 O13         -3.1740     0.3450     0.1040 os         1 S35      -0.323100
     21 C14         -3.6550     1.6890     0.1390 c3         1 S35       0.139600
     22 C15         -5.1730     1.6450     0.0870 c3         1 S35       0.172300
     23 C17         -5.8190     3.0290     0.3340 c3         1 S35      -0.076000
     24 C19         -5.3500     4.0670    -0.6900 c3         1 S35      -0.086433
     25 C20         -7.3390     2.8810     0.2450 c3         1 S35      -0.086433
     26 C18         -5.4650     3.5150     1.7440 c3         1 S35      -0.086433
     27 O16         -5.6090     1.0290    -1.1020 oh         1 S35      -0.642000
     28 N8          -1.3230    -1.0310     0.1540 na         1 S35       0.204000
     29 C6          -2.0120    -2.2550     0.0340 ca         1 S35      -0.012200
     30 C5          -2.9140    -2.6670     1.0060 ca         1 S35      -0.064000
     31 C4          -3.5800    -3.8750     0.8670 ca         1 S35      -0.127000
     32 C3          -3.3340    -4.6790    -0.2380 ca         1 S35      -0.082000
     33 C2          -2.4320    -4.2790    -1.2140 ca         1 S35      -0.155000
     34 C1          -1.7890    -3.0670    -1.0690 ca         1 S35       0.200000
     35 F7          -0.9340    -2.6580    -2.0100 f          1 S35      -0.157000
     36 H351         5.3810     2.5660     1.4850 hc         1 S35       0.044367
     37 H352         6.5680     1.2810     1.3420 hc         1 S35       0.044367
     38 H353         6.9520     2.8960     0.7650 hc         1 S35       0.044367
     39 H31          6.8920     3.2230    -1.5210 ha         1 S35       0.094000
     40 H32          6.0300     2.7450    -3.7760 ha         1 S35       0.092000
     41 H33          4.2380     1.0500    -4.0730 ha         1 S35       0.096000
     42 H34          3.3340    -0.1240    -2.1110 ha         1 S35       0.113000
     43 H24          4.1980     0.6770     1.3970 h1         1 S35       0.095700
     44 H251         4.6840    -1.8510    -0.2200 hc         1 S35       0.031700
     45 H252         5.9010    -0.9820     0.6790 hc         1 S35       0.031700
     46 H23          2.3610    -1.1450     0.1580 hn         1 S35       0.341500
     47 H11         -0.8720     2.1770     0.3990 ha         1 S35       0.158000
     48 H141        -3.3070     2.1740     1.0540 h1         1 S35       0.048700
     49 H142        -3.2440     2.2400    -0.7140 h1         1 S35       0.048700
     50 H15         -5.5150     0.9860     0.8950 h1         1 S35       0.084700
     51 H16         -5.3810     1.5910    -1.8500 ho         1 S35       0.438000
     52 H191        -5.6040     3.7870    -1.7150 hc         1 S35       0.037033
     53 H192        -5.8360     5.0260    -0.5000 hc         1 S35       0.037033
     54 H193        -4.2730     4.2380    -0.6450 hc         1 S35       0.037033
     55 H201        -7.7070     2.1330     0.9510 hc         1 S35       0.037033
     56 H202        -7.8220     3.8300     0.4900 hc         1 S35       0.037033
     57 H203        -7.6680     2.5910    -0.7520 hc         1 S35       0.037033
     58 H181        -4.4150     3.7920     1.8450 hc         1 S35       0.037033
     59 H182        -6.0540     4.3980     1.9960 hc         1 S35       0.037033
     60 H183        -5.6830     2.7510     2.4950 hc         1 S35       0.037033
     61 H5          -3.0830    -2.0420     1.8730 ha         1 S35       0.131000
     62 H4          -4.2800    -4.1910     1.6280 ha         1 S35       0.116000
     63 H3          -3.8440    -5.6270    -0.3440 ha         1 S35       0.112000
     64 H2          -2.2350    -4.8970    -2.0800 ha         1 S35       0.131000
@<TRIPOS>BOND
     1     1     2 1   
     2     1    36 1   
     3     1    37 1   
     4     1    38 1   
     5     2     3 ar  
     6     2     7 ar  
     7     3     4 ar  
     8     3    39 1   
     9     4     5 ar  
    10     4    40 1   
    11     5     6 ar  
    12     5    41 1   
    13     6     7 ar  
    14     6    42 1   
    15     7     8 1   
    16     8     9 1   
    17     8    13 1   
    18     8    43 1   
    19     9    10 1   
    20     9    44 1   
    21     9    45 1   
    22    10    11 1   
    23    10    12 1   
    24    13    14 1   
    25    13    46 1   
    26    14    15 2   
    27    14    16 1   
    28    16    17 2   
    29    16    18 1   
    30    17    28 1   
    31    18    19 2   
    32    18    47 1   
    33    19    20 1   
    34    19    28 1   
    35    20    21 1   
    36    21    22 1   
    37    21    48 1   
    38    21    49 1   
    39    22    23 1   
    40    22    27 1   
    41    22    50 1   
    42    23    24 1   
    43    23    25 1   
    44    23    26 1   
    45    24    52 1   
    46    24    53 1   
    47    24    54 1   
    48    25    55 1   
    49    25    56 1   
    50    25    57 1   
    51    26    58 1   
    52    26    59 1   
    53    26    60 1   
    54    27    51 1   
    55    28    29 1   
    56    29    30 ar  
    57    29    34 ar  
    58    30    31 ar  
    59    30    61 1   
    60    31    32 ar  
    61    31    62 1   
    62    32    33 ar  
    63    32    63 1   
    64    33    34 ar  
    65    33    64 1   
    66    34    35 1   
@<TRIPOS>SUBSTRUCTURE
     1 S35         1 TEMP              0 ****  ****    0 ROOT
