@<TRIPOS>MOLECULE
S36
   44    46     1     0     0
SMALL
No Charge or Current Charge


@<TRIPOS>ATOM
      1 C01          2.9270     1.1020    -1.6660 ca         1 S36      -0.259000
      2 C02          3.5170     0.0050    -1.0300 ca         1 S36       0.204100
      3 C03          2.9220    -0.5630     0.1190 ca         1 S36      -0.213300
      4 C04          1.7260     0.0060     0.6060 ca         1 S36      -0.009000
      5 C05          1.1190     1.1040    -0.0400 ca         1 S36      -0.219600
      6 C06          1.7360     1.6540    -1.1780 ca         1 S36       0.219100
      7 C07         -0.1560     1.6860     0.5160 c          1 S36       0.639700
      8 N08         -1.1590     0.7870     0.9470 n          1 S36      -0.409800
      9 O09         -0.2730     2.8910     0.7050 o          1 S36      -0.583100
     10 O10          1.1740     2.6960    -1.8510 oh         1 S36      -0.510100
     11 O11          4.6720    -0.4900    -1.5520 oh         1 S36      -0.535100
     12 C12          3.5270    -1.7700     0.8570 c3         1 S36      -0.000400
     13 C13          3.9690    -1.3900     2.2880 c3         1 S36      -0.087600
     14 C14          2.5550    -2.9720     0.8630 c3         1 S36      -0.087600
     15 C15         -2.3440     1.2460     1.7090 c6         1 S36       0.096000
     16 C16         -3.5860     1.3160     0.8010 c6         1 S36      -0.057100
     17 C17         -3.8010     0.0110     0.0370 ca         1 S36      -0.061300
     18 C18         -2.7240    -0.8830    -0.1660 ca         1 S36      -0.103300
     19 C19         -1.3160    -0.5770     0.3690 c6         1 S36       0.151300
     20 C20         -5.0750    -0.2980    -0.4780 ca         1 S36      -0.108000
     21 C21         -5.2820    -1.4940    -1.1840 ca         1 S36      -0.106000
     22 C22         -4.2160    -2.3860    -1.3820 ca         1 S36      -0.111000
     23 C23         -2.9420    -2.0800    -0.8750 ca         1 S36      -0.106000
     24 H1           3.4010     1.5170    -2.5510 ha         1 S36       0.133000
     25 H2           1.2680    -0.4000     1.5050 ha         1 S36       0.120000
     26 H3           1.7590     2.9250    -2.6020 ho         1 S36       0.469000
     27 H4           4.9520    -1.2420    -0.9930 ho         1 S36       0.471000
     28 H5           4.4300    -2.1200     0.3450 hc         1 S36       0.030700
     29 H6           3.1110    -1.0990     2.9060 hc         1 S36       0.037533
     30 H7           4.4690    -2.2350     2.7750 hc         1 S36       0.037533
     31 H8           4.6730    -0.5490     2.2610 hc         1 S36       0.037533
     32 H9           1.6460    -2.7500     1.4350 hc         1 S36       0.037533
     33 H10          2.2610    -3.2320    -0.1610 hc         1 S36       0.037533
     34 H11          3.0320    -3.8510     1.3120 hc         1 S36       0.037533
     35 H12         -2.5350     0.5350     2.5270 h1         1 S36       0.061200
     36 H13         -2.1620     2.2260     2.1730 h1         1 S36       0.061200
     37 H14         -4.4700     1.5540     1.4090 hc         1 S36       0.061700
     38 H15         -3.4670     2.1390     0.0840 hc         1 S36       0.061700
     39 H16         -0.6120    -0.7180    -0.4630 h1         1 S36       0.057200
     40 H17         -1.0600    -1.3180     1.1390 h1         1 S36       0.057200
     41 H18         -5.9040     0.3890    -0.3290 ha         1 S36       0.112000
     42 H19         -6.2690    -1.7290    -1.5790 ha         1 S36       0.113000
     43 H20         -4.3760    -3.3120    -1.9290 ha         1 S36       0.113000
     44 H21         -2.1200    -2.7760    -1.0350 ha         1 S36       0.109000
@<TRIPOS>BOND
     1     1     2 ar  
     2     1     6 ar  
     3     1    24 1   
     4     2     3 ar  
     5     2    11 1   
     6     3     4 ar  
     7     3    12 1   
     8     4     5 ar  
     9     4    25 1   
    10     5     6 ar  
    11     5     7 1   
    12     6    10 1   
    13     7     8 1   
    14     7     9 2   
    15     8    15 1   
    16     8    19 1   
    17    10    26 1   
    18    11    27 1   
    19    12    13 1   
    20    12    14 1   
    21    12    28 1   
    22    13    29 1   
    23    13    30 1   
    24    13    31 1   
    25    14    32 1   
    26    14    33 1   
    27    14    34 1   
    28    15    16 1   
    29    15    35 1   
    30    15    36 1   
    31    16    17 1   
    32    16    37 1   
    33    16    38 1   
    34    17    18 ar  
    35    17    20 ar  
    36    18    19 1   
    37    18    23 ar  
    38    19    39 1   
    39    19    40 1   
    40    20    21 ar  
    41    20    41 1   
    42    21    22 ar  
    43    21    42 1   
    44    22    23 ar  
    45    22    43 1   
    46    23    44 1   
@<TRIPOS>SUBSTRUCTURE
     1 S36         1 TEMP              0 ****  ****    0 ROOT
