@<TRIPOS>MOLECULE
S36
   44    46     1     0     0
SMALL
abcg2


@<TRIPOS>ATOM
      1 C01          2.6830     0.9390    -1.6980 ca         1 S36      -0.259000
      2 C02          3.3800    -0.0800    -1.0510 ca         1 S36       0.204100
      3 C03          2.9010    -0.6330     0.1430 ca         1 S36      -0.213300
      4 C04          1.7180    -0.1050     0.6450 ca         1 S36      -0.009000
      5 C05          1.0080     0.9160     0.0290 ca         1 S36      -0.219600
      6 C06          1.5080     1.4440    -1.1650 ca         1 S36       0.219100
      7 C07         -0.1970     1.5040     0.6840 c          1 S36       0.639700
      8 N08         -1.2020     0.6520     0.9930 n          1 S36      -0.409800
      9 O09         -0.2290     2.6920     0.9770 o          1 S36      -0.583100
     10 O10          0.8040     2.4130    -1.7750 oh         1 S36      -0.510100
     11 O11          4.5170    -0.4770    -1.6540 oh         1 S36      -0.535100
     12 C12          3.6100    -1.7380     0.9000 c3         1 S36      -0.000400
     13 C13          4.2180    -1.2120     2.1990 c3         1 S36      -0.087600
     14 C14          2.6850    -2.9270     1.1620 c3         1 S36      -0.087600
     15 C15         -2.3500     1.1130     1.7520 c6         1 S36       0.096000
     16 C16         -3.5330     1.3170     0.8230 c6         1 S36      -0.057100
     17 C17         -3.7560     0.1000    -0.0350 ca         1 S36      -0.061300
     18 C18         -2.7350    -0.8310    -0.2200 ca         1 S36      -0.103300
     19 C19         -1.3760    -0.6650     0.4200 c6         1 S36       0.151300
     20 C20         -4.9870    -0.1150    -0.6540 ca         1 S36      -0.108000
     21 C21         -5.2100    -1.2320    -1.4410 ca         1 S36      -0.106000
     22 C22         -4.1910    -2.1620    -1.6170 ca         1 S36      -0.111000
     23 C23         -2.9650    -1.9580    -1.0070 ca         1 S36      -0.106000
     24 H1           3.0740     1.3330    -2.6300 ha         1 S36       0.133000
     25 H2           1.3300    -0.5040     1.5760 ha         1 S36       0.120000
     26 H3           1.2270     2.6650    -2.6040 ho         1 S36       0.469000
     27 H4           4.9540    -1.1730    -1.1530 ho         1 S36       0.471000
     28 H5           4.4360    -2.1300     0.2980 hc         1 S36       0.030700
     29 H6           3.4450    -0.8190     2.8630 hc         1 S36       0.037533
     30 H7           4.7400    -2.0070     2.7330 hc         1 S36       0.037533
     31 H8           4.9320    -0.4100     2.0080 hc         1 S36       0.037533
     32 H9           1.8580    -2.6560     1.8200 hc         1 S36       0.037533
     33 H10          2.2610    -3.3120     0.2340 hc         1 S36       0.037533
     34 H11          3.2340    -3.7350     1.6460 hc         1 S36       0.037533
     35 H12         -2.5850     0.3530     2.5030 h1         1 S36       0.061200
     36 H13         -2.0990     2.0290     2.2790 h1         1 S36       0.061200
     37 H14         -4.4300     1.5330     1.4080 hc         1 S36       0.061700
     38 H15         -3.3540     2.1920     0.1920 hc         1 S36       0.061700
     39 H16         -0.6100    -0.8410    -0.3320 h1         1 S36       0.057200
     40 H17         -1.2410    -1.4310     1.1920 h1         1 S36       0.057200
     41 H18         -5.7820     0.6080    -0.5080 ha         1 S36       0.112000
     42 H19         -6.1730    -1.3800    -1.9120 ha         1 S36       0.113000
     43 H20         -4.3520    -3.0400    -2.2290 ha         1 S36       0.113000
     44 H21         -2.1690    -2.6800    -1.1480 ha         1 S36       0.109000
@<TRIPOS>BOND
     1     1     2 ar  
     2     1     6 ar  
     3     1    24 1   
     4     2     3 ar  
     5     2    11 1   
     6     3     4 ar  
     7     3    12 1   
     8     4     5 ar  
     9     4    25 1   
    10     5     6 ar  
    11     5     7 1   
    12     6    10 1   
    13     7     8 1   
    14     7     9 2   
    15     8    15 1   
    16     8    19 1   
    17    10    26 1   
    18    11    27 1   
    19    12    13 1   
    20    12    14 1   
    21    12    28 1   
    22    13    29 1   
    23    13    30 1   
    24    13    31 1   
    25    14    32 1   
    26    14    33 1   
    27    14    34 1   
    28    15    16 1   
    29    15    35 1   
    30    15    36 1   
    31    16    17 1   
    32    16    37 1   
    33    16    38 1   
    34    17    18 ar  
    35    17    20 ar  
    36    18    19 1   
    37    18    23 ar  
    38    19    39 1   
    39    19    40 1   
    40    20    21 ar  
    41    20    41 1   
    42    21    22 ar  
    43    21    42 1   
    44    22    23 ar  
    45    22    43 1   
    46    23    44 1   
@<TRIPOS>SUBSTRUCTURE
     1 S36         1 TEMP              0 ****  ****    0 ROOT
