@<TRIPOS>MOLECULE
S38
   34    36     1     0     0
SMALL
No Charge or Current Charge


@<TRIPOS>ATOM
      1 C1          -4.1600     0.6460    -0.9280 ca         1 S38      -0.081500
      2 C2          -4.9330     0.2310     0.1720 ca         1 S38       0.003000
      3 C3          -4.3150    -0.4620     1.2280 ca         1 S38      -0.081500
      4 C4          -2.9370    -0.7370     1.1850 ca         1 S38      -0.078000
      5 C5          -2.1480    -0.3260     0.0860 ca         1 S38      -0.131600
      6 C6          -2.7810     0.3720    -0.9730 ca         1 S38      -0.078000
      7 C7          -0.6640    -0.6410     0.0770 c          1 S38       0.608700
      8 N8           0.0550    -0.2240    -1.0240 ns         1 S38      -0.480900
      9 C9           1.4690    -0.4300    -1.1980 cx         1 S38       0.049700
     10 C10          2.4030     0.6810    -0.7700 cx         1 S38      -0.063400
     11 C11          2.1740     0.4030    -2.2390 cx         1 S38      -0.132400
     12 C12          3.7250     0.4030    -0.0960 ca         1 S38      -0.045300
     13 C13          4.2070     1.2960     0.8830 ca         1 S38      -0.101500
     14 C14          5.4350     1.0590     1.5250 ca         1 S38      -0.108500
     15 C15          6.1940    -0.0750     1.1960 ca         1 S38      -0.108000
     16 C16          5.7240    -0.9720     0.2230 ca         1 S38      -0.108500
     17 C17          4.4960    -0.7350    -0.4200 ca         1 S38      -0.101500
     18 O18         -0.1200    -1.2360     0.9990 o          1 S38      -0.577100
     19 C19         -6.3420     0.5120     0.2150 cg         1 S38       0.318000
     20 N20         -7.4870     0.7440     0.2410 n1         1 S38      -0.442000
     21 H1          -4.6270     1.1830    -1.7510 ha         1 S38       0.130500
     22 H3          -4.9010    -0.7890     2.0850 ha         1 S38       0.130500
     23 H4          -2.4840    -1.2740     2.0160 ha         1 S38       0.131500
     24 H6          -2.2230     0.7120    -1.8410 ha         1 S38       0.131500
     25 HN8         -0.4650     0.2530    -1.7490 hn         1 S38       0.320500
     26 H9           1.7910    -1.4630    -1.0590 h1         1 S38       0.092700
     27 H10          1.9250     1.5760    -0.3790 hc         1 S38       0.091700
     28 H11          2.9740    -0.0670    -2.8040 hc         1 S38       0.078700
     29 H11A         1.5890     1.1260    -2.8020 hc         1 S38       0.078700
     30 H13          3.6310     2.1790     1.1490 ha         1 S38       0.109500
     31 H14          5.7970     1.7550     2.2790 ha         1 S38       0.111500
     32 H15          7.1440    -0.2590     1.6930 ha         1 S38       0.112000
     33 H16          6.3110    -1.8510    -0.0340 ha         1 S38       0.111500
     34 H17          4.1520    -1.4420    -1.1700 ha         1 S38       0.109500
@<TRIPOS>BOND
     1     1     2 ar  
     2     1     6 ar  
     3     1    21 1   
     4     2     3 ar  
     5     2    19 1   
     6     3     4 ar  
     7     3    22 1   
     8     4     5 ar  
     9     4    23 1   
    10     5     6 ar  
    11     5     7 1   
    12     6    24 1   
    13     7     8 1   
    14     7    18 2   
    15     8     9 1   
    16     8    25 1   
    17     9    10 1   
    18     9    11 1   
    19     9    26 1   
    20    10    11 1   
    21    10    12 1   
    22    10    27 1   
    23    11    28 1   
    24    11    29 1   
    25    12    13 ar  
    26    12    17 ar  
    27    13    14 ar  
    28    13    30 1   
    29    14    15 ar  
    30    14    31 1   
    31    15    16 ar  
    32    15    32 1   
    33    16    17 ar  
    34    16    33 1   
    35    17    34 1   
    36    19    20 3   
@<TRIPOS>SUBSTRUCTURE
     1 S38         1 TEMP              0 ****  ****    0 ROOT
