@<TRIPOS>MOLECULE
S38
   34    36     1     0     0
SMALL
abcg2


@<TRIPOS>ATOM
      1 C1          -4.0830     0.7410    -0.8640 ca         1 S38      -0.081500
      2 C2          -4.7990     0.2010     0.2020 ca         1 S38       0.003000
      3 C3          -4.1430    -0.4930     1.2180 ca         1 S38      -0.081500
      4 C4          -2.7700    -0.6420     1.1610 ca         1 S38      -0.078000
      5 C5          -2.0450    -0.1230     0.0910 ca         1 S38      -0.131600
      6 C6          -2.7100     0.5750    -0.9150 ca         1 S38      -0.078000
      7 C7          -0.5580    -0.3090     0.0960 c          1 S38       0.608700
      8 N8           0.0420    -0.2950    -1.1090 ns         1 S38      -0.480900
      9 C9           1.4470    -0.4780    -1.2440 cx         1 S38       0.049700
     10 C10          2.3670     0.6460    -0.8500 cx         1 S38      -0.063400
     11 C11          2.1560     0.2980    -2.2970 cx         1 S38      -0.132400
     12 C12          3.6380     0.3650    -0.1420 ca         1 S38      -0.045300
     13 C13          4.0030     1.1580     0.9450 ca         1 S38      -0.101500
     14 C14          5.1800     0.9190     1.6420 ca         1 S38      -0.108500
     15 C15          6.0150    -0.1230     1.2650 ca         1 S38      -0.108000
     16 C16          5.6620    -0.9210     0.1840 ca         1 S38      -0.108500
     17 C17          4.4870    -0.6790    -0.5130 ca         1 S38      -0.101500
     18 O18          0.0520    -0.4630     1.1410 o          1 S38      -0.577100
     19 C19         -6.2170     0.3640     0.2570 cg         1 S38       0.318000
     20 N20         -7.3600     0.4930     0.3000 n1         1 S38      -0.442000
     21 H1          -4.5940     1.2890    -1.6430 ha         1 S38       0.130500
     22 H3          -4.7020    -0.9080     2.0450 ha         1 S38       0.130500
     23 H4          -2.2590    -1.1720     1.9530 ha         1 S38       0.131500
     24 H6          -2.1690     1.0190    -1.7390 ha         1 S38       0.131500
     25 HN8         -0.5170    -0.3420    -1.9450 hn         1 S38       0.320500
     26 H9           1.8080    -1.4830    -1.0390 h1         1 S38       0.092700
     27 H10          1.8630     1.5470    -0.5170 hc         1 S38       0.091700
     28 H11          2.9540    -0.1950    -2.8370 hc         1 S38       0.078700
     29 H11A         1.5780     0.9950    -2.8910 hc         1 S38       0.078700
     30 H13          3.3570     1.9720     1.2520 ha         1 S38       0.109500
     31 H14          5.4430     1.5500     2.4820 ha         1 S38       0.111500
     32 H15          6.9350    -0.3110     1.8040 ha         1 S38       0.112000
     33 H16          6.3060    -1.7350    -0.1230 ha         1 S38       0.111500
     34 H17          4.2410    -1.3140    -1.3570 ha         1 S38       0.109500
@<TRIPOS>BOND
     1     1     2 ar  
     2     1     6 ar  
     3     1    21 1   
     4     2     3 ar  
     5     2    19 1   
     6     3     4 ar  
     7     3    22 1   
     8     4     5 ar  
     9     4    23 1   
    10     5     6 ar  
    11     5     7 1   
    12     6    24 1   
    13     7     8 1   
    14     7    18 2   
    15     8     9 1   
    16     8    25 1   
    17     9    10 1   
    18     9    11 1   
    19     9    26 1   
    20    10    11 1   
    21    10    12 1   
    22    10    27 1   
    23    11    28 1   
    24    11    29 1   
    25    12    13 ar  
    26    12    17 ar  
    27    13    14 ar  
    28    13    30 1   
    29    14    15 ar  
    30    14    31 1   
    31    15    16 ar  
    32    15    32 1   
    33    16    17 ar  
    34    16    33 1   
    35    17    34 1   
    36    19    20 3   
@<TRIPOS>SUBSTRUCTURE
     1 S38         1 TEMP              0 ****  ****    0 ROOT
