@<TRIPOS>MOLECULE
S39
   59    64     1     0     0
SMALL
No Charge or Current Charge


@<TRIPOS>ATOM
      1 N1         -19.8870     5.4050    27.8030 ns         1 S39      -0.158000
      2 N3         -20.0410     8.5390    29.7780 ns         1 S39      -0.137000
      3 C4         -20.3520     4.7740    28.9510 c          1 S39       0.609100
      4 C5         -18.5680     5.6350    27.3120 ca         1 S39      -0.082000
      5 C6         -17.4470     4.9070    27.7850 ca         1 S39       0.322900
      6 C7         -15.9940     6.0260    26.3710 ca         1 S39       0.350900
      7 C8         -17.0380     6.7990    25.8290 ca         1 S39      -0.082000
      8 C10        -17.8220     8.5300    24.3060 ca         1 S39      -0.101000
      9 C13        -18.3530     6.6080    26.3050 ca         1 S39      -0.026000
     10 C15        -22.8330     4.4620    31.4440 ca         1 S39      -0.063300
     11 C17        -23.1930     2.2500    32.4110 ca         1 S39      -0.090000
     12 C20        -22.7240     1.6550    31.2290 ca         1 S39       0.127000
     13 C21        -18.8390     8.9150    29.1210 ca         1 S39      -0.023000
     14 C22        -17.6680     8.1930    29.4420 ca         1 S39      -0.138000
     15 C24        -18.7680     9.9540    28.1610 ca         1 S39      -0.086000
     16 C26        -16.4130     9.5370    27.8820 ca         1 S39      -0.201000
     17 Cl         -22.6550    -0.0980    31.0960 cl         1 S39      -0.206000
     18 C16        -23.2490     3.6510    32.5170 ca         1 S39      -0.099000
     19 C19        -22.3100     2.4550    30.1520 ca         1 S39      -0.086000
     20 C18        -22.3610     3.8590    30.2540 ca         1 S39      -0.050300
     21 C3         -21.8920     4.7390    29.0870 c6         1 S39      -0.093400
     22 O1         -19.6080     4.2880    29.7960 o          1 S39      -0.564100
     23 C12        -19.4010     7.3950    25.7740 ca         1 S39      -0.114000
     24 C11        -19.1310     8.3520    24.7800 ca         1 S39      -0.077000
     25 C9         -16.7740     7.7550    24.8290 ca         1 S39      -0.081000
     26 N2         -16.1860     5.0920    27.3290 nb         1 S39      -0.652000
     27 C2         -22.4560     6.1750    29.1740 c6         1 S39       0.168800
     28 C14        -22.9240     5.9920    31.5660 c6         1 S39       0.221100
     29 N          -22.1670     6.7300    30.5170 n3         1 S39      -0.741600
     30 C1         -22.3230     8.2200    30.6040 c3         1 S39       0.079800
     31 C          -21.3280     9.0570    29.7600 c          1 S39       0.593100
     32 O          -21.6680    10.0570    29.1340 o          1 S39      -0.590100
     33 C25        -17.5430    10.2580    27.5450 ca         1 S39       0.108400
     34 N4         -17.3910    11.2630    26.5940 nc         1 S39      -0.521100
     35 C27        -16.0970    11.2530    26.2290 cd         1 S39       0.386100
     36 S          -15.0030    10.0710    26.9930 ss         1 S39       0.001800
     37 C23        -16.4440     8.5010    28.8240 ca         1 S39      -0.046000
     38 H1         -20.6160     5.7710    27.2050 hn         1 S39       0.150000
     39 H2         -19.9570     7.7070    30.3500 hn         1 S39       0.186000
     40 H3         -17.5490     4.1290    28.5370 h4         1 S39       0.037100
     41 H4         -14.9690     6.1550    26.0250 h4         1 S39       0.023100
     42 H5         -17.6180     9.2730    23.5380 ha         1 S39       0.122000
     43 H6         -23.5140     1.6260    33.2410 ha         1 S39       0.134000
     44 H7         -17.7070     7.3860    30.1710 ha         1 S39       0.136000
     45 H8         -19.6430    10.5260    27.8750 ha         1 S39       0.162000
     46 H9         -23.6180     4.1060    33.4340 ha         1 S39       0.119000
     47 H10        -21.9460     1.9850    29.2430 ha         1 S39       0.130000
     48 H11        -22.2740     4.3710    28.1250 hc         1 S39       0.072700
     49 H12        -20.4230     7.2850    26.1230 ha         1 S39       0.105000
     50 H13        -19.9400     8.9590    24.3780 ha         1 S39       0.119000
     51 H14        -15.7610     7.9010    24.4620 ha         1 S39       0.119000
     52 H15        -22.0210     6.7990    28.3790 h1         1 S39       0.047700
     53 H16        -23.5420     6.1530    28.9980 h1         1 S39       0.047700
     54 H17        -22.5610     6.2850    32.5620 h1         1 S39       0.050200
     55 H18        -23.9880     6.2690    31.5240 h1         1 S39       0.050200
     56 H20        -22.1740     8.5430    31.6430 h1         1 S39       0.070200
     57 H21        -23.3390     8.5190    30.3130 h1         1 S39       0.070200
     58 H22        -15.6810    11.9300    25.4940 h5         1 S39       0.056800
     59 H23        -15.5430     7.9420    29.0690 ha         1 S39       0.133000
@<TRIPOS>BOND
     1     1     3 1   
     2     1     4 1   
     3     1    38 1   
     4     2    13 1   
     5     2    31 1   
     6     2    39 1   
     7     3    21 1   
     8     3    22 2   
     9     4     5 ar  
    10     4     9 ar  
    11     5    26 ar  
    12     5    40 1   
    13     6     7 ar  
    14     6    26 ar  
    15     6    41 1   
    16     7     9 ar  
    17     7    25 ar  
    18     8    24 ar  
    19     8    25 ar  
    20     8    42 1   
    21     9    23 ar  
    22    10    18 ar  
    23    10    20 ar  
    24    10    28 1   
    25    11    12 ar  
    26    11    18 ar  
    27    11    43 1   
    28    12    17 1   
    29    12    19 ar  
    30    13    14 ar  
    31    13    15 ar  
    32    14    37 ar  
    33    14    44 1   
    34    15    33 ar  
    35    15    45 1   
    36    16    33 ar  
    37    16    36 1   
    38    16    37 ar  
    39    18    46 1   
    40    19    20 ar  
    41    19    47 1   
    42    20    21 1   
    43    21    27 1   
    44    21    48 1   
    45    23    24 ar  
    46    23    49 1   
    47    24    50 1   
    48    25    51 1   
    49    27    29 1   
    50    27    52 1   
    51    27    53 1   
    52    28    29 1   
    53    28    54 1   
    54    28    55 1   
    55    29    30 1   
    56    30    31 1   
    57    30    56 1   
    58    30    57 1   
    59    31    32 2   
    60    33    34 1   
    61    34    35 2   
    62    35    36 1   
    63    35    58 1   
    64    37    59 1   
@<TRIPOS>SUBSTRUCTURE
     1 S39         1 TEMP              0 ****  ****    0 ROOT
