@<TRIPOS>MOLECULE
S39
   59    64     1     0     0
SMALL
abcg2


@<TRIPOS>ATOM
      1 N1         -20.0020     5.1280    27.5420 ns         1 S39      -0.158000
      2 N3         -20.1090     8.2880    29.5270 ns         1 S39      -0.137000
      3 C4         -20.3620     4.8440    28.8260 c          1 S39       0.609100
      4 C5         -18.7190     5.5150    27.1060 ca         1 S39      -0.082000
      5 C6         -17.5950     4.8300    27.5020 ca         1 S39       0.322900
      6 C7         -16.1910     6.1890    26.3070 ca         1 S39       0.350900
      7 C8         -17.2660     6.9630    25.8160 ca         1 S39      -0.082000
      8 C10        -18.1240     8.8170    24.5310 ca         1 S39      -0.101000
      9 C13        -18.5840     6.6320    26.2350 ca         1 S39      -0.026000
     10 C15        -22.6660     4.6520    31.4070 ca         1 S39      -0.063300
     11 C17        -22.8050     2.5700    32.6430 ca         1 S39      -0.090000
     12 C20        -22.3470     1.8960    31.5170 ca         1 S39       0.127000
     13 C21        -18.8440     8.6810    29.0670 ca         1 S39      -0.023000
     14 C22        -17.7590     7.8640    29.4480 ca         1 S39      -0.138000
     15 C24        -18.6380     9.7910    28.2590 ca         1 S39      -0.086000
     16 C26        -16.2650     9.2400    28.2070 ca         1 S39      -0.201000
     17 CL         -22.1430     0.1550    31.5810 cl         1 S39      -0.206000
     18 C16        -22.9620     3.9450    32.5730 ca         1 S39      -0.099000
     19 C19        -22.0480     2.5720    30.3480 ca         1 S39      -0.086000
     20 C18        -22.2070     3.9560    30.2870 ca         1 S39      -0.050300
     21 C3         -21.8770     4.6860    29.0090 c6         1 S39      -0.093400
     22 O1         -19.5650     4.7690    29.7480 o          1 S39      -0.564100
     23 C12        -19.6610     7.4330    25.7920 ca         1 S39      -0.114000
     24 C11        -19.4300     8.4990    24.9590 ca         1 S39      -0.077000
     25 C9         -17.0610     8.0650    24.9550 ca         1 S39      -0.081000
     26 N2         -16.3400     5.1650    27.1170 nb         1 S39      -0.652000
     27 C2         -22.5400     6.0700    29.0000 c6         1 S39       0.168800
     28 C14        -22.8840     6.1440    31.3730 c6         1 S39       0.221100
     29 N          -22.2150     6.7660    30.2390 n3         1 S39      -0.741600
     30 C1         -22.4380     8.1950    30.1460 c3         1 S39       0.079800
     31 C          -21.2970     8.9320    29.4460 c          1 S39       0.593100
     32 O          -21.4810    10.0230    28.9160 o          1 S39      -0.590100
     33 C25        -17.3400    10.0690    27.8270 ca         1 S39       0.108400
     34 N4         -16.9910    11.1260    26.9990 nc         1 S39      -0.521100
     35 C27        -15.7240    11.1070    26.7420 cd         1 S39       0.386100
     36 S          -14.8030     9.8190    27.4710 ss         1 S39       0.001800
     37 C23        -16.4740     8.1330    29.0260 ca         1 S39      -0.046000
     38 H1         -20.7500     5.2110    26.8700 hn         1 S39       0.150000
     39 H2         -20.1680     7.3970    30.0080 hn         1 S39       0.186000
     40 H3         -17.6860     3.9780    28.1600 h4         1 S39       0.037100
     41 H4         -15.1790     6.4470    26.0080 h4         1 S39       0.023100
     42 H5         -17.9670     9.6680    23.8820 ha         1 S39       0.122000
     43 H6         -23.0340     2.0300    33.5510 ha         1 S39       0.134000
     44 H7         -17.9500     6.9970    30.0670 ha         1 S39       0.136000
     45 H8         -19.4590    10.4160    27.9520 ha         1 S39       0.162000
     46 H9         -23.3180     4.4810    33.4450 ha         1 S39       0.119000
     47 H10        -21.6920     2.0300    29.4810 ha         1 S39       0.130000
     48 H11        -22.2600     4.1170    28.1590 hc         1 S39       0.072700
     49 H12        -20.6680     7.2230    26.1250 ha         1 S39       0.105000
     50 H13        -20.2610     9.1140    24.6350 ha         1 S39       0.119000
     51 H14        -16.0500     8.3090    24.6530 ha         1 S39       0.119000
     52 H15        -22.1830     6.6570    28.1550 h1         1 S39       0.047700
     53 H16        -23.6270     5.9510    28.8810 h1         1 S39       0.047700
     54 H17        -22.5040     6.5920    32.2930 h1         1 S39       0.050200
     55 H18        -23.9700     6.3400    31.3460 h1         1 S39       0.050200
     56 H20        -22.5010     8.6130    31.1550 h1         1 S39       0.070200
     57 H21        -23.3690     8.4590    29.6280 h1         1 S39       0.070200
     58 H22        -15.2250    11.8320    26.1130 h5         1 S39       0.056800
     59 H23        -15.6570     7.4850    29.3140 ha         1 S39       0.133000
@<TRIPOS>BOND
     1     1     3 1   
     2     1     4 1   
     3     1    38 1   
     4     2    13 1   
     5     2    31 1   
     6     2    39 1   
     7     3    21 1   
     8     3    22 2   
     9     4     5 ar  
    10     4     9 ar  
    11     5    26 ar  
    12     5    40 1   
    13     6     7 ar  
    14     6    26 ar  
    15     6    41 1   
    16     7     9 ar  
    17     7    25 ar  
    18     8    24 ar  
    19     8    25 ar  
    20     8    42 1   
    21     9    23 ar  
    22    10    18 ar  
    23    10    20 ar  
    24    10    28 1   
    25    11    12 ar  
    26    11    18 ar  
    27    11    43 1   
    28    12    17 1   
    29    12    19 ar  
    30    13    14 ar  
    31    13    15 ar  
    32    14    37 ar  
    33    14    44 1   
    34    15    33 ar  
    35    15    45 1   
    36    16    33 ar  
    37    16    36 1   
    38    16    37 ar  
    39    18    46 1   
    40    19    20 ar  
    41    19    47 1   
    42    20    21 1   
    43    21    27 1   
    44    21    48 1   
    45    23    24 ar  
    46    23    49 1   
    47    24    50 1   
    48    25    51 1   
    49    27    29 1   
    50    27    52 1   
    51    27    53 1   
    52    28    29 1   
    53    28    54 1   
    54    28    55 1   
    55    29    30 1   
    56    30    31 1   
    57    30    56 1   
    58    30    57 1   
    59    31    32 2   
    60    33    34 1   
    61    34    35 2   
    62    35    36 1   
    63    35    58 1   
    64    37    59 1   
@<TRIPOS>SUBSTRUCTURE
     1 S39         1 TEMP              0 ****  ****    0 ROOT
