@<TRIPOS>MOLECULE
S3B
   26    26     1     0     0
SMALL
bcc


@<TRIPOS>ATOM
      1 C1          -0.4630     0.5720     0.3110 ca         1 S3B       0.126100
      2 O2           0.8450     0.4420     0.7310 os         1 S3B      -0.353200
      3 C3           1.7910     0.2920    -0.2120 c          1 S3B       0.689100
      4 C4           3.1100    -0.0740     0.4020 c3         1 S3B      -0.137400
      5 C5           4.2430    -0.1450    -0.6050 c3         1 S3B      -0.074100
      6 O6           1.5880     0.4940    -1.3780 o          1 S3B      -0.539000
      7 C7          -0.9870     1.8640     0.2740 ca         1 S3B      -0.110300
      8 C8          -0.1360     3.0540     0.6070 c3         1 S3B      -0.029800
      9 C9          -2.3230     2.0110    -0.0800 ca         1 S3B      -0.147000
     10 C10         -3.1050     0.9050    -0.3810 ca         1 S3B      -0.162000
     11 C11         -2.5560    -0.3640    -0.3230 ca         1 S3B      -0.099000
     12 C12         -1.2160    -0.5610     0.0120 ca         1 S3B      -0.130600
     13 C13         -0.6590    -1.9860     0.0340 c          1 S3B       0.935200
     14 O14          0.5750    -2.1260    -0.0510 o          1 S3B      -0.822800
     15 O15         -1.5060    -2.8940     0.1160 o          1 S3B      -0.822800
     16 H4           3.3360     0.6520     1.1880 hc         1 S3B       0.069700
     17 H4A          2.9810    -1.0320     0.9130 hc         1 S3B       0.069700
     18 H5           5.1740    -0.4010    -0.1000 hc         1 S3B       0.031367
     19 H5A          4.0590    -0.9030    -1.3640 hc         1 S3B       0.031367
     20 H5B          4.3930     0.8090    -1.1100 hc         1 S3B       0.031367
     21 H8           0.6950     3.1660    -0.0920 hc         1 S3B       0.028700
     22 H8A         -0.7250     3.9690     0.5630 hc         1 S3B       0.028700
     23 H8B          0.2930     2.9830     1.6070 hc         1 S3B       0.028700
     24 H9          -2.7510     3.0060    -0.1220 ha         1 S3B       0.103000
     25 H10         -4.1450     1.0370    -0.6520 ha         1 S3B       0.106000
     26 H11         -3.1690    -1.2280    -0.5430 ha         1 S3B       0.148000
@<TRIPOS>BOND
     1     1     2 1   
     2     1     7 ar  
     3     1    12 ar  
     4     2     3 1   
     5     3     4 1   
     6     3     6 2   
     7     4     5 1   
     8     4    16 1   
     9     4    17 1   
    10     5    18 1   
    11     5    19 1   
    12     5    20 1   
    13     7     8 1   
    14     7     9 ar  
    15     8    21 1   
    16     8    22 1   
    17     8    23 1   
    18     9    10 ar  
    19     9    24 1   
    20    10    11 ar  
    21    10    25 1   
    22    11    12 ar  
    23    11    26 1   
    24    12    13 1   
    25    13    14 1   
    26    13    15 1   
@<TRIPOS>SUBSTRUCTURE
     1 S3B         1 TEMP              0 ****  ****    0 ROOT
