@<TRIPOS>MOLECULE
S3B
   26    26     1     0     0
SMALL
No Charge or Current Charge


@<TRIPOS>ATOM
      1 C1          -0.3890     0.5350     0.1920 ca         1 S3B       0.126100
      2 O2           0.9440     0.3960     0.4960 os         1 S3B      -0.353200
      3 C3           1.9430     0.8000    -0.3490 c          1 S3B       0.640100
      4 C4           3.3320     0.5680     0.2540 c3         1 S3B      -0.137400
      5 C5           3.9440    -0.7650    -0.2260 c3         1 S3B      -0.074100
      6 O6           1.7580     1.2940    -1.4550 o          1 S3B      -0.490000
      7 C7          -1.0190     1.7910     0.3640 ca         1 S3B      -0.110300
      8 C8          -0.2390     3.0050     0.8620 c3         1 S3B      -0.029800
      9 C9          -2.3920     1.9200     0.0800 ca         1 S3B      -0.129000
     10 C10         -3.1330     0.8110    -0.3540 ca         1 S3B      -0.144000
     11 C11         -2.5090    -0.4380    -0.5070 ca         1 S3B      -0.081000
     12 C12         -1.1320    -0.5860    -0.2390 ca         1 S3B      -0.130600
     13 C13         -0.4860    -1.9360    -0.4070 c          1 S3B       0.724600
     14 O14          0.4850    -2.0350    -1.1440 o          1 S3B      -0.717500
     15 O15         -1.0210    -2.8950     0.1320 o          1 S3B      -0.717500
     16 H4           3.9950     1.3890    -0.0410 hc         1 S3B       0.069700
     17 H4A          3.2470     0.5130     1.3460 hc         1 S3B       0.069700
     18 H5           4.9370    -0.9120     0.2160 hc         1 S3B       0.031367
     19 H5A          3.3100    -1.6110     0.0670 hc         1 S3B       0.031367
     20 H5B          4.0490    -0.7730    -1.3170 hc         1 S3B       0.031367
     21 H8           0.4090     3.4060     0.0740 hc         1 S3B       0.028700
     22 H8A         -0.9080     3.8120     1.1820 hc         1 S3B       0.028700
     23 H8B          0.3930     2.7480     1.7210 hc         1 S3B       0.028700
     24 H9          -2.8890     2.8800     0.2020 ha         1 S3B       0.085000
     25 H10         -4.1940     0.9170    -0.5670 ha         1 S3B       0.088000
     26 H11         -3.0940    -1.2940    -0.8390 ha         1 S3B       0.130000
@<TRIPOS>BOND
     1     1     2 1   
     2     1     7 ar  
     3     1    12 ar  
     4     2     3 1   
     5     3     4 1   
     6     3     6 2   
     7     4     5 1   
     8     4    16 1   
     9     4    17 1   
    10     5    18 1   
    11     5    19 1   
    12     5    20 1   
    13     7     8 1   
    14     7     9 ar  
    15     8    21 1   
    16     8    22 1   
    17     8    23 1   
    18     9    10 ar  
    19     9    24 1   
    20    10    11 ar  
    21    10    25 1   
    22    11    12 ar  
    23    11    26 1   
    24    12    13 1   
    25    13    14 1   
    26    13    15 1   
@<TRIPOS>SUBSTRUCTURE
     1 S3B         1 TEMP              0 ****  ****    0 ROOT
