@<TRIPOS>MOLECULE
S3E
   32    34     1     0     0
SMALL
abcg2


@<TRIPOS>ATOM
      1 C02        -43.8210   -32.3430     2.6650 c          1 S3E       0.707000
      2 C03        -43.8070   -31.0990     1.7490 c3         1 S3E      -0.208400
      3 C04        -45.1780   -30.6140     1.3210 c6         1 S3E       0.174300
      4 C05        -45.9810   -30.1050     2.5100 c6         1 S3E       0.188800
      5 C07        -48.2120   -29.1560     2.9380 ca         1 S3E       0.447900
      6 C08        -48.0490   -29.1740     4.3520 ca         1 S3E      -0.244800
      7 C09        -47.0350   -29.4990     5.3230 cc         1 S3E      -0.171200
      8 C10        -47.5740   -29.2630     6.5570 cd         1 S3E      -0.208100
      9 C12        -49.1770   -28.7400     5.0870 ca         1 S3E       0.140500
     10 C14        -50.3660   -28.3520     3.2550 ca         1 S3E       0.174900
     11 C16        -47.4430   -29.4520     0.6200 c6         1 S3E       0.194800
     12 C17        -46.1920   -28.8970    -0.0400 c6         1 S3E       0.146600
     13 N06        -47.2520   -29.5330     2.0640 nh         1 S3E      -0.764300
     14 N11        -48.8690   -28.8050     6.4110 na         1 S3E      -0.333400
     15 N13        -50.3490   -28.3240     4.5810 nb         1 S3E      -0.264000
     16 N15        -49.3920   -28.7380     2.4290 nb         1 S3E      -0.326000
     17 O01        -42.9190   -32.4040     3.5390 o          1 S3E      -0.733000
     18 O18        -44.9870   -29.5610     0.3690 os         1 S3E      -0.482000
     19 O19        -44.7090   -33.2080     2.4540 o          1 S3E      -0.733000
     20 H031       -43.2450   -31.3640     0.8480 hc         1 S3E       0.039200
     21 H032       -43.2650   -30.2900     2.2420 hc         1 S3E       0.039200
     22 H041       -45.7120   -31.4440     0.8510 h1         1 S3E       0.063700
     23 H051       -46.1630   -30.9370     3.1900 h1         1 S3E       0.071700
     24 H052       -45.3890   -29.3490     3.0350 h1         1 S3E       0.071700
     25 H091       -46.0390   -29.8610     5.1510 ha         1 S3E       0.225000
     26 H101       -47.1420   -29.3820     7.5370 h4         1 S3E       0.211000
     27 H141       -51.2850   -28.0250     2.7770 h5         1 S3E       0.028100
     28 H161       -48.2780   -28.7920     0.4120 h1         1 S3E       0.063700
     29 H162       -47.6910   -30.4380     0.2150 h1         1 S3E       0.063700
     30 H172       -46.0860   -27.8370     0.2080 h1         1 S3E       0.033200
     31 H171       -46.2910   -28.9900    -1.1260 h1         1 S3E       0.033200
     32 H111       -49.4910   -28.5470     7.1600 hn         1 S3E       0.349000
@<TRIPOS>BOND
     1     1     2 1   
     2     1    17 1   
     3     1    19 1   
     4     2     3 1   
     5     2    20 1   
     6     2    21 1   
     7     3     4 1   
     8     3    18 1   
     9     3    22 1   
    10     4    13 1   
    11     4    23 1   
    12     4    24 1   
    13     5     6 ar  
    14     5    13 1   
    15     5    16 ar  
    16     6     7 1   
    17     6     9 ar  
    18     7     8 2   
    19     7    25 1   
    20     8    14 1   
    21     8    26 1   
    22     9    14 1   
    23     9    15 ar  
    24    10    15 ar  
    25    10    16 ar  
    26    10    27 1   
    27    11    12 1   
    28    11    13 1   
    29    11    28 1   
    30    11    29 1   
    31    12    18 1   
    32    12    30 1   
    33    12    31 1   
    34    14    32 1   
@<TRIPOS>SUBSTRUCTURE
     1 S3E         1 TEMP              0 ****  ****    0 ROOT
