@<TRIPOS>MOLECULE
S3E
   32    34     1     0     0
SMALL
No Charge or Current Charge


@<TRIPOS>ATOM
      1 C02        -43.9070   -32.3760     2.6130 c          1 S3E       0.707000
      2 C03        -43.8400   -31.3120     1.5160 c3         1 S3E      -0.208400
      3 C04        -45.2430   -30.7010     1.2680 c6         1 S3E       0.174300
      4 C05        -45.8380   -29.9600     2.5150 c6         1 S3E       0.188800
      5 C07        -48.2020   -29.1470     3.0310 ca         1 S3E       0.447900
      6 C08        -48.1320   -29.1250     4.4400 ca         1 S3E      -0.244800
      7 C09        -47.0220   -29.0760     5.3530 cc         1 S3E      -0.171200
      8 C10        -47.5560   -29.0510     6.6300 cd         1 S3E      -0.208100
      9 C12        -49.2880   -29.1090     5.1820 ca         1 S3E       0.140500
     10 C14        -50.4950   -29.1230     3.2400 ca         1 S3E       0.174900
     11 C16        -47.0010   -28.3890     0.9070 c6         1 S3E       0.194800
     12 C17        -46.3630   -29.2060    -0.2560 c6         1 S3E       0.146600
     13 N06        -47.0740   -29.1820     2.1800 nh         1 S3E      -0.764300
     14 N11        -48.9680   -29.0780     6.5300 na         1 S3E      -0.333400
     15 N13        -50.4960   -29.1090     4.5920 nb         1 S3E      -0.264000
     16 N15        -49.4120   -29.1400     2.4310 nb         1 S3E      -0.326000
     17 O01        -43.7130   -32.0270     3.7660 o          1 S3E      -0.733000
     18 O18        -45.1030   -29.7900     0.1510 os         1 S3E      -0.482000
     19 O19        -44.2050   -33.5150     2.2900 o          1 S3E      -0.733000
     20 H031       -43.5430   -31.7800     0.5710 hc         1 S3E       0.039200
     21 H032       -43.1810   -30.4920     1.8250 hc         1 S3E       0.039200
     22 H041       -45.9300   -31.5100     0.9750 h1         1 S3E       0.063700
     23 H051       -46.0640   -30.7110     3.2860 h1         1 S3E       0.071700
     24 H052       -45.0730   -29.2870     2.9280 h1         1 S3E       0.071700
     25 H091       -45.9600   -29.0400     5.1170 ha         1 S3E       0.225000
     26 H101       -47.0420   -29.0080     7.5890 h4         1 S3E       0.211000
     27 H141       -51.4680   -29.1200     2.7520 h5         1 S3E       0.028100
     28 H161       -46.4010   -27.4820     1.0710 h1         1 S3E       0.063700
     29 H162       -47.9970   -28.0520     0.5840 h1         1 S3E       0.063700
     30 H172       -46.1920   -28.5510    -1.1210 h1         1 S3E       0.033200
     31 H171       -47.0460   -30.0090    -0.5670 h1         1 S3E       0.033200
     32 H111       -49.6330   -29.0650     7.2970 hn         1 S3E       0.349000
@<TRIPOS>BOND
     1     1     2 1   
     2     1    17 1   
     3     1    19 1   
     4     2     3 1   
     5     2    20 1   
     6     2    21 1   
     7     3     4 1   
     8     3    18 1   
     9     3    22 1   
    10     4    13 1   
    11     4    23 1   
    12     4    24 1   
    13     5     6 ar  
    14     5    13 1   
    15     5    16 ar  
    16     6     7 1   
    17     6     9 ar  
    18     7     8 2   
    19     7    25 1   
    20     8    14 1   
    21     8    26 1   
    22     9    14 1   
    23     9    15 ar  
    24    10    15 ar  
    25    10    16 ar  
    26    10    27 1   
    27    11    12 1   
    28    11    13 1   
    29    11    28 1   
    30    11    29 1   
    31    12    18 1   
    32    12    30 1   
    33    12    31 1   
    34    14    32 1   
@<TRIPOS>SUBSTRUCTURE
     1 S3E         1 TEMP              0 ****  ****    0 ROOT
