@<TRIPOS>MOLECULE
S3G
   51    53     1     0     0
SMALL
bcc


@<TRIPOS>ATOM
      1 C1           2.7670     0.7380    -2.0310 ca         1 S3G      -0.155000
      2 C2           3.6710     1.7590    -1.7110 ca         1 S3G      -0.149000
      3 C3          -5.1500     1.7800    -0.3810 ca         1 S3G      -0.211800
      4 C4          -4.0670     0.4560     1.2770 ca         1 S3G      -0.211800
      5 C5          -6.1440     2.0330     0.5500 ca         1 S3G       0.386200
      6 C6          -5.1220     0.7590     2.1270 ca         1 S3G       0.386200
      7 C7          -4.0750     0.9830    -0.0090 ca         1 S3G      -0.106600
      8 C8           2.9600    -0.2730     0.1690 ca         1 S3G      -0.096600
      9 C9           2.4120    -0.2630    -1.1340 ca         1 S3G      -0.069300
     10 C10          4.1850     1.7350    -0.4410 ca         1 S3G       0.028100
     11 C11          3.8210     0.7560     0.4690 ca         1 S3G       0.063100
     12 C12         -3.0100     0.6760    -1.0190 c          1 S3G       0.673700
     13 C13          2.6650    -1.3450     1.2110 c          1 S3G       0.934200
     14 C14          5.1280     2.2230     1.5040 c5         1 S3G       0.323200
     15 C15         -2.6510    -4.0320    -0.7020 c3         1 S3G      -0.088600
     16 C16         -1.6990    -2.7420     1.2210 c3         1 S3G      -0.088600
     17 C17          1.4100    -1.3100    -1.5400 c3         1 S3G      -0.020100
     18 C18         -0.7840    -2.4370    -1.1260 c3         1 S3G      -0.064400
     19 C19         -0.6230     0.1170    -1.3000 c3         1 S3G       0.095000
     20 C20         -2.0250    -2.7090    -0.2680 c3         1 S3G      -0.055700
     21 C21          0.0440    -1.1810    -0.8410 c3         1 S3G      -0.076700
     22 N22         -6.1400     1.5350     1.7820 nb         1 S3G      -0.667000
     23 N23         -1.7840     0.4850    -0.5180 ns         1 S3G      -0.548900
     24 O24          2.1830    -0.9420     2.2830 o          1 S3G      -0.812800
     25 O25         -3.2930     0.6040    -2.2070 o          1 S3G      -0.616100
     26 O26          2.9610    -2.5120     0.8980 o          1 S3G      -0.812800
     27 O27          5.0970     2.5680     0.1260 os         1 S3G      -0.345900
     28 O28          4.5100     0.9540     1.6280 os         1 S3G      -0.293900
     29 H1           2.3270     0.7310    -3.0210 ha         1 S3G       0.112000
     30 H2           3.9470     2.5160    -2.4330 ha         1 S3G       0.127000
     31 H4          -3.2790    -0.1960     1.6290 ha         1 S3G       0.156500
     32 H6          -5.1400     0.3490     3.1310 h4         1 S3G       0.016100
     33 H171         1.2580    -1.2680    -2.6230 hc         1 S3G       0.053700
     34 H172         1.8110    -2.2980    -1.3150 hc         1 S3G       0.053700
     35 H23         -1.6280     0.6860     0.4570 hn         1 S3G       0.321500
     36 H141         6.1610     2.1670     1.8480 h2         1 S3G       0.043200
     37 H142         4.5720     2.9680     2.0850 h2         1 S3G       0.043200
     38 H151        -3.5530    -4.2540    -0.1290 hc         1 S3G       0.030700
     39 H152        -2.9250    -4.0150    -1.7580 hc         1 S3G       0.030700
     40 H153        -1.9530    -4.8600    -0.5540 hc         1 S3G       0.030700
     41 H20         -2.7690    -1.9270    -0.4370 hc         1 S3G       0.036700
     42 H161        -0.9130    -3.4720     1.4310 hc         1 S3G       0.030700
     43 H162        -1.3540    -1.7790     1.5980 hc         1 S3G       0.030700
     44 H163        -2.5770    -3.0240     1.8050 hc         1 S3G       0.030700
     45 H21          0.2270    -1.1100     0.2360 hc         1 S3G       0.092700
     46 H181        -0.1210    -3.3020    -1.0030 hc         1 S3G       0.038700
     47 H182        -1.0760    -2.4350    -2.1830 hc         1 S3G       0.038700
     48 H191         0.0990     0.9360    -1.2460 h1         1 S3G       0.057200
     49 H192        -0.9260     0.0310    -2.3440 h1         1 S3G       0.057200
     50 H3          -5.2150     2.2050    -1.3730 ha         1 S3G       0.156500
     51 H5          -6.9840     2.6650     0.2850 h4         1 S3G       0.016100
@<TRIPOS>BOND
     1     1     2 ar  
     2     1     9 ar  
     3     1    29 1   
     4     2    10 ar  
     5     2    30 1   
     6     3     5 ar  
     7     3     7 ar  
     8     3    50 1   
     9     4     6 ar  
    10     4     7 ar  
    11     4    31 1   
    12     5    22 ar  
    13     5    51 1   
    14     6    22 ar  
    15     6    32 1   
    16     7    12 1   
    17     8     9 ar  
    18     8    11 ar  
    19     8    13 1   
    20     9    17 1   
    21    10    11 ar  
    22    10    27 1   
    23    11    28 1   
    24    12    23 1   
    25    12    25 2   
    26    13    24 1   
    27    13    26 1   
    28    14    27 1   
    29    14    28 1   
    30    14    36 1   
    31    14    37 1   
    32    15    20 1   
    33    15    38 1   
    34    15    39 1   
    35    15    40 1   
    36    16    20 1   
    37    16    42 1   
    38    16    43 1   
    39    16    44 1   
    40    17    21 1   
    41    17    33 1   
    42    17    34 1   
    43    18    20 1   
    44    18    21 1   
    45    18    46 1   
    46    18    47 1   
    47    19    21 1   
    48    19    23 1   
    49    19    48 1   
    50    19    49 1   
    51    20    41 1   
    52    21    45 1   
    53    23    35 1   
@<TRIPOS>SUBSTRUCTURE
     1 S3G         1 TEMP              0 ****  ****    0 ROOT
