@<TRIPOS>MOLECULE
S3G
   51    53     1     0     0
SMALL
No Charge or Current Charge


@<TRIPOS>ATOM
      1 C1           2.7430     0.7210    -1.9920 ca         1 S3G      -0.137000
      2 C2           3.5910     1.7980    -1.6650 ca         1 S3G      -0.131000
      3 C3          -5.3020     1.5260    -0.2790 ca         1 S3G      -0.128500
      4 C4          -3.7710     0.9490     1.4860 ca         1 S3G      -0.128500
      5 C5          -6.2660     1.8010     0.7060 ca         1 S3G       0.320900
      6 C6          -4.7960     1.2460     2.4030 ca         1 S3G       0.320900
      7 C7          -4.0130     1.0880     0.0970 ca         1 S3G      -0.106600
      8 C8           3.0470    -0.2370     0.2510 ca         1 S3G      -0.096600
      9 C9           2.4590    -0.2980    -1.0450 ca         1 S3G      -0.069300
     10 C10          4.1400     1.8340    -0.3810 ca         1 S3G       0.028100
     11 C11          3.8800     0.8570     0.5400 ca         1 S3G       0.063100
     12 C12         -2.9700     0.7840    -0.9610 c          1 S3G       0.606700
     13 C13          2.8170    -1.2910     1.3000 c          1 S3G       0.723600
     14 C14          5.1680     2.3840     1.4930 c5         1 S3G       0.369600
     15 C15         -2.7780    -4.1200    -1.0210 c3         1 S3G      -0.088600
     16 C16         -2.0830    -2.7640     1.0120 c3         1 S3G      -0.088600
     17 C17          1.5250    -1.4410    -1.4510 c3         1 S3G      -0.020100
     18 C18         -0.7110    -2.6330    -1.1820 c3         1 S3G      -0.064400
     19 C19         -0.6120    -0.0280    -1.3560 c3         1 S3G       0.095000
     20 C20         -2.1160    -2.8100    -0.5350 c3         1 S3G      -0.055700
     21 C21          0.0880    -1.3280    -0.8630 c3         1 S3G      -0.076700
     22 N22         -6.0260     1.6670     2.0300 nb         1 S3G      -0.667000
     23 N23         -1.7320     0.3840    -0.5040 ns         1 S3G      -0.481900
     24 O24          2.0780    -1.0220     2.2370 o          1 S3G      -0.707500
     25 O25         -3.2120     0.8810    -2.1570 o          1 S3G      -0.616100
     26 O26          3.3900    -2.3650     1.1740 o          1 S3G      -0.707500
     27 O27          4.9880     2.7830     0.0890 os         1 S3G      -0.369100
     28 O28          4.5450     1.0700     1.7070 os         1 S3G      -0.317100
     29 H1           2.3020     0.6780    -2.9850 ha         1 S3G       0.094000
     30 H2           3.8120     2.5780    -2.3890 ha         1 S3G       0.109000
     31 H4          -2.8150     0.6160     1.8760 ha         1 S3G       0.138500
     32 H6          -4.6250     1.1440     3.4740 h4         1 S3G       0.016100
     33 H171         1.4530    -1.4990    -2.5440 hc         1 S3G       0.053700
     34 H172         1.9680    -2.3960    -1.1440 hc         1 S3G       0.053700
     35 H23         -1.6050     0.3520     0.4980 hn         1 S3G       0.321500
     36 H141         6.2370     2.3300     1.7300 h2         1 S3G       0.043200
     37 H142         4.6730     3.1200     2.1370 h2         1 S3G       0.043200
     38 H151        -3.7910    -4.2180    -0.6120 hc         1 S3G       0.030700
     39 H152        -2.8560    -4.1330    -2.1150 hc         1 S3G       0.030700
     40 H153        -2.1950    -4.9940    -0.7070 hc         1 S3G       0.030700
     41 H20         -2.7640    -1.9990    -0.8820 hc         1 S3G       0.036700
     42 H161        -1.4220    -3.5430     1.4110 hc         1 S3G       0.030700
     43 H162        -1.7290    -1.7940     1.3770 hc         1 S3G       0.030700
     44 H163        -3.0870    -2.9240     1.4240 hc         1 S3G       0.030700
     45 H21          0.2020    -1.2550     0.2240 hc         1 S3G       0.092700
     46 H181        -0.1000    -3.4940    -0.8840 hc         1 S3G       0.038700
     47 H182        -0.8210    -2.7070    -2.2720 hc         1 S3G       0.038700
     48 H191         0.1030     0.8040    -1.3560 h1         1 S3G       0.057200
     49 H192        -0.9490    -0.1700    -2.3910 h1         1 S3G       0.057200
     50 H3          -5.5660     1.6560    -1.3260 ha         1 S3G       0.138500
     51 H5          -7.2630     2.1400     0.4260 h4         1 S3G       0.016100
@<TRIPOS>BOND
     1     1     2 ar  
     2     1     9 ar  
     3     1    29 1   
     4     2    10 ar  
     5     2    30 1   
     6     3     5 ar  
     7     3     7 ar  
     8     3    50 1   
     9     4     6 ar  
    10     4     7 ar  
    11     4    31 1   
    12     5    22 ar  
    13     5    51 1   
    14     6    22 ar  
    15     6    32 1   
    16     7    12 1   
    17     8     9 ar  
    18     8    11 ar  
    19     8    13 1   
    20     9    17 1   
    21    10    11 ar  
    22    10    27 1   
    23    11    28 1   
    24    12    23 1   
    25    12    25 2   
    26    13    24 1   
    27    13    26 1   
    28    14    27 1   
    29    14    28 1   
    30    14    36 1   
    31    14    37 1   
    32    15    20 1   
    33    15    38 1   
    34    15    39 1   
    35    15    40 1   
    36    16    20 1   
    37    16    42 1   
    38    16    43 1   
    39    16    44 1   
    40    17    21 1   
    41    17    33 1   
    42    17    34 1   
    43    18    20 1   
    44    18    21 1   
    45    18    46 1   
    46    18    47 1   
    47    19    21 1   
    48    19    23 1   
    49    19    48 1   
    50    19    49 1   
    51    20    41 1   
    52    21    45 1   
    53    23    35 1   
@<TRIPOS>SUBSTRUCTURE
     1 S3G         1 TEMP              0 ****  ****    0 ROOT
