@<TRIPOS>MOLECULE
S3H
    5     4     1     0     0
SMALL
No Charge or Current Charge


@<TRIPOS>ATOM
      1 S3           1.5000     0.2310     0.7980 sh         1 S3H      -0.238800
      2 S2          -0.0020     1.3950    -0.0860 ss         1 S3H       0.026000
      3 S1          -1.5200     0.1180    -0.7620 sh         1 S3H      -0.238800
      4 HS3          1.8460    -0.5360    -0.2640 hs         1 S3H       0.225800
      5 HS1         -1.8760    -0.4530     0.4150 hs         1 S3H       0.225800
@<TRIPOS>BOND
     1     1     2 1   
     2     1     4 1   
     3     2     3 1   
     4     3     5 1   
@<TRIPOS>SUBSTRUCTURE
     1 S3H         1 TEMP              0 ****  ****    0 ROOT
