@<TRIPOS>MOLECULE
S3H
    5     4     1     0     0
SMALL
abcg2


@<TRIPOS>ATOM
      1 S3           1.4690     0.0320     0.7720 sh         1 S3H      -0.238800
      2 S2          -0.0040     1.2010    -0.0690 ss         1 S3H       0.026000
      3 S1          -1.4930    -0.0740    -0.7030 sh         1 S3H      -0.238800
      4 HS3          2.1700    -0.2500    -0.3360 hs         1 S3H       0.225800
      5 HS1         -2.1940    -0.1540     0.4370 hs         1 S3H       0.225800
@<TRIPOS>BOND
     1     1     2 1   
     2     1     4 1   
     3     2     3 1   
     4     3     5 1   
@<TRIPOS>SUBSTRUCTURE
     1 S3H         1 TEMP              0 ****  ****    0 ROOT
