@<TRIPOS>MOLECULE
S3I
   53    55     1     0     0
SMALL
abcg2


@<TRIPOS>ATOM
      1 C10        -17.5270   -22.2130    -3.4590 ca         1 S3I      -0.157000
      2 C11        -17.3020   -20.8350    -3.3860 ca         1 S3I      -0.024000
      3 C13        -16.1970   -19.1180    -1.9540 c          1 S3I       0.580100
      4 C15        -13.7820   -19.0690    -1.3840 c3         1 S3I      -0.096100
      5 C18        -17.6140   -19.9910     0.6490 ca         1 S3I      -0.178000
      6 C19        -18.6410   -20.4310     1.4660 ca         1 S3I      -0.028500
      7 C24        -17.1480   -21.9530     2.5720 ca         1 S3I      -0.028500
      8 C25        -16.1130   -21.5210     1.7660 ca         1 S3I      -0.178000
      9 C04        -20.3110   -17.5410    -6.9930 cc         1 S3I      -0.327900
     10 C05        -19.6850   -18.1900    -5.9620 cd         1 S3I      -0.089000
     11 C06        -19.4550   -19.5760    -6.2110 cd         1 S3I      -0.058000
     12 C07        -18.7970   -20.4930    -5.2630 ca         1 S3I       0.014000
     13 C08        -19.0230   -21.8720    -5.3190 ca         1 S3I      -0.123000
     14 C09        -18.3840   -22.7200    -4.4240 ca         1 S3I      -0.082000
     15 C14        -15.1880   -19.0290    -0.7850 c3         1 S3I       0.112000
     16 C17        -16.3340   -20.5340     0.8010 ca         1 S3I       0.154100
     17 C20        -18.4340   -21.4130     2.4400 ca         1 S3I      -0.209600
     18 C21        -19.5680   -21.8460     3.2930 c          1 S3I       0.581700
     19 C22        -19.3290   -22.9270     4.3180 c3         1 S3I      -0.192100
     20 C26        -15.3790   -17.7650     0.0420 c3         1 S3I      -0.096100
     21 C28        -17.9300   -19.9810    -4.2920 ca         1 S3I      -0.124000
     22 C29        -19.9230   -19.9420    -7.4520 cc         1 S3I      -0.232000
     23 N01        -20.9900   -15.4170    -6.0000 n2         1 S3I      -0.832100
     24 N03        -20.8220   -15.5810    -8.2940 nv         1 S3I      -1.039200
     25 N12        -16.4250   -20.3820    -2.3850 ns         1 S3I      -0.138000
     26 O16        -15.2490   -20.2180     0.0430 os         1 S3I      -0.375100
     27 O23        -20.6770   -21.3400     3.1720 o          1 S3I      -0.531100
     28 O27        -16.6810   -18.1080    -2.4470 o          1 S3I      -0.579100
     29 S30        -20.6280   -18.6350    -8.3010 ss         1 S3I       0.242000
     30 H101       -17.0360   -22.8750    -2.7550 ha         1 S3I       0.114000
     31 H152       -13.0460   -18.9860    -0.5830 hc         1 S3I       0.059200
     32 H153       -13.6190   -20.0030    -1.9220 hc         1 S3I       0.059200
     33 H151       -13.6510   -18.2350    -2.0720 hc         1 S3I       0.059200
     34 H191       -19.6310   -20.0120     1.3490 ha         1 S3I       0.128000
     35 H241       -16.9480   -22.7150     3.3120 ha         1 S3I       0.128000
     36 H251       -15.1180   -21.9340     1.8680 ha         1 S3I       0.131500
     37 H051       -19.3980   -17.6880    -5.0500 ha         1 S3I       0.147000
     38 H081       -19.7080   -22.2810    -6.0490 ha         1 S3I       0.116000
     39 H091       -18.5630   -23.7860    -4.4710 ha         1 S3I       0.116000
     40 H221       -20.2570   -23.1290     4.8490 hc         1 S3I       0.061367
     41 H223       -18.9750   -23.8410     3.8370 hc         1 S3I       0.061367
     42 H222       -18.5610   -22.6170     5.0300 hc         1 S3I       0.061367
     43 H261       -14.6570   -17.7730     0.8590 hc         1 S3I       0.059200
     44 H262       -15.1920   -16.8930    -0.5810 hc         1 S3I       0.059200
     45 H263       -16.3810   -17.6780     0.4560 hc         1 S3I       0.059200
     46 H281       -17.7300   -18.9250    -4.2420 ha         1 S3I       0.148000
     47 H291       -19.8780   -20.9140    -7.9170 h4         1 S3I       0.152000
     48 H011       -20.9660   -15.9920    -5.1630 hn         1 S3I       0.391400
     49 H032       -20.9910   -14.5870    -8.3310 hn         1 S3I       0.471500
     50 H121       -15.9680   -21.1090    -1.8530 hn         1 S3I       0.166000
     51 H031       -20.2230   -15.9360    -9.0240 hn         1 S3I       0.471500
     52 C02        -20.7110   -16.1220    -7.0400 ce         1 S3I       0.685800
     53 H181       -17.8250   -19.2370    -0.0920 ha         1 S3I       0.131500
@<TRIPOS>BOND
     1     1     2 ar  
     2     1    14 ar  
     3     1    30 1   
     4     2    21 ar  
     5     2    25 1   
     6     3    15 1   
     7     3    25 1   
     8     3    28 2   
     9     4    15 1   
    10     4    31 1   
    11     4    32 1   
    12     4    33 1   
    13     5     6 ar  
    14     5    16 ar  
    15     5    53 1   
    16     6    17 ar  
    17     6    34 1   
    18     7     8 ar  
    19     7    17 ar  
    20     7    35 1   
    21     8    16 ar  
    22     8    36 1   
    23     9    10 2   
    24     9    29 1   
    25     9    52 1   
    26    10    11 1   
    27    10    37 1   
    28    11    12 1   
    29    11    22 2   
    30    12    13 ar  
    31    12    21 ar  
    32    13    14 ar  
    33    13    38 1   
    34    14    39 1   
    35    15    20 1   
    36    15    26 1   
    37    16    26 1   
    38    17    18 1   
    39    18    19 1   
    40    18    27 2   
    41    19    40 1   
    42    19    41 1   
    43    19    42 1   
    44    20    43 1   
    45    20    44 1   
    46    20    45 1   
    47    21    46 1   
    48    22    29 1   
    49    22    47 1   
    50    23    48 1   
    51    23    52 2   
    52    24    49 1   
    53    24    51 1   
    54    24    52 1   
    55    25    50 1   
@<TRIPOS>SUBSTRUCTURE
     1 S3I         1 TEMP              0 ****  ****    0 ROOT
