@<TRIPOS>MOLECULE
S3I
   53    55     1     0     0
SMALL
No Charge or Current Charge


@<TRIPOS>ATOM
      1 C10        -18.1480   -21.8980    -2.9990 ca         1 S3I      -0.157000
      2 C11        -17.7470   -20.5570    -3.1030 ca         1 S3I      -0.024000
      3 C13        -16.3730   -18.8020    -1.8140 c          1 S3I       0.580100
      4 C15        -13.9130   -18.6020    -1.2770 c3         1 S3I      -0.096100
      5 C18        -17.5830   -20.1070     0.8960 ca         1 S3I      -0.178000
      6 C19        -18.5370   -20.7470     1.7050 ca         1 S3I      -0.028500
      7 C24        -16.8380   -22.2920     2.4950 ca         1 S3I      -0.028500
      8 C25        -15.8890   -21.6490     1.6830 ca         1 S3I      -0.178000
      9 C04        -20.0630   -17.4890    -7.4850 cc         1 S3I      -0.327900
     10 C05        -19.4380   -18.0650    -6.3990 cd         1 S3I      -0.089000
     11 C06        -19.7370   -19.4490    -6.1860 cd         1 S3I      -0.058000
     12 C07        -19.1890   -20.2880    -5.0850 ca         1 S3I       0.014000
     13 C08        -19.5790   -21.6400    -4.9470 ca         1 S3I      -0.123000
     14 C09        -19.0620   -22.4370    -3.9150 ca         1 S3I      -0.082000
     15 C14        -15.3210   -18.7540    -0.6520 c3         1 S3I       0.112000
     16 C17        -16.2450   -20.5530     0.8860 ca         1 S3I       0.154100
     17 C20        -18.1790   -21.8470     2.5170 ca         1 S3I      -0.209600
     18 C21        -19.2310   -22.5170     3.3800 c          1 S3I       0.581700
     19 C22        -18.8460   -23.7120     4.2560 c3         1 S3I      -0.192100
     20 C26        -15.5660   -17.5910     0.3530 c3         1 S3I      -0.096100
     21 C28        -18.2660   -19.7620    -4.1500 ca         1 S3I      -0.124000
     22 C29        -20.6180   -19.9170    -7.1360 cc         1 S3I      -0.232000
     23 N01        -19.3180   -15.2380    -7.3540 n2         1 S3I      -0.832100
     24 N03        -20.5850   -15.7620    -9.1090 nv         1 S3I      -1.039200
     25 N12        -16.8160   -20.0790    -2.1420 ns         1 S3I      -0.138000
     26 O16        -15.2410   -19.9970     0.1060 os         1 S3I      -0.375100
     27 O23        -20.3880   -22.1140     3.3860 o          1 S3I      -0.531100
     28 O27        -16.7980   -17.7800    -2.3470 o          1 S3I      -0.579100
     29 S30        -21.0780   -18.6770    -8.2900 ss         1 S3I       0.242000
     30 H101       -17.7560   -22.5270    -2.2020 ha         1 S3I       0.114000
     31 H152       -13.1400   -18.5850    -0.4990 hc         1 S3I       0.059200
     32 H153       -13.6970   -19.4370    -1.9550 hc         1 S3I       0.059200
     33 H151       -13.8390   -17.6710    -1.8510 hc         1 S3I       0.059200
     34 H191       -19.5630   -20.3830     1.6940 ha         1 S3I       0.128000
     35 H241       -16.5120   -23.1360     3.0990 ha         1 S3I       0.128000
     36 H251       -14.8620   -22.0040     1.6740 ha         1 S3I       0.131500
     37 H051       -18.7700   -17.5000    -5.7590 ha         1 S3I       0.147000
     38 H081       -20.2840   -22.0910    -5.6360 ha         1 S3I       0.116000
     39 H091       -19.3710   -23.4770    -3.8260 ha         1 S3I       0.116000
     40 H221       -19.6940   -24.1040     4.8280 hc         1 S3I       0.061367
     41 H223       -18.3950   -24.4870     3.6260 hc         1 S3I       0.061367
     42 H222       -18.0190   -23.4220     4.9140 hc         1 S3I       0.061367
     43 H261       -14.8860   -17.6690     1.2100 hc         1 S3I       0.059200
     44 H262       -15.3860   -16.6230    -0.1290 hc         1 S3I       0.059200
     45 H263       -16.5920   -17.5730     0.7330 hc         1 S3I       0.059200
     46 H281       -17.9390   -18.7360    -4.2460 ha         1 S3I       0.148000
     47 H291       -21.0440   -20.9020    -7.2600 h4         1 S3I       0.152000
     48 H011       -18.9510   -15.6720    -6.5000 hn         1 S3I       0.391400
     49 H032       -20.2500   -14.8790    -9.4740 hn         1 S3I       0.471500
     50 H121       -16.4000   -20.8090    -1.5760 hn         1 S3I       0.166000
     51 H031       -20.7190   -16.4990    -9.7870 hn         1 S3I       0.471500
     52 C02        -19.9880   -16.1200    -7.9640 ce         1 S3I       0.685800
     53 H181       -17.9160   -19.2780     0.2830 ha         1 S3I       0.131500
@<TRIPOS>BOND
     1     1     2 ar  
     2     1    14 ar  
     3     1    30 1   
     4     2    21 ar  
     5     2    25 1   
     6     3    15 1   
     7     3    25 1   
     8     3    28 2   
     9     4    15 1   
    10     4    31 1   
    11     4    32 1   
    12     4    33 1   
    13     5     6 ar  
    14     5    16 ar  
    15     5    53 1   
    16     6    17 ar  
    17     6    34 1   
    18     7     8 ar  
    19     7    17 ar  
    20     7    35 1   
    21     8    16 ar  
    22     8    36 1   
    23     9    10 2   
    24     9    29 1   
    25     9    52 1   
    26    10    11 1   
    27    10    37 1   
    28    11    12 1   
    29    11    22 2   
    30    12    13 ar  
    31    12    21 ar  
    32    13    14 ar  
    33    13    38 1   
    34    14    39 1   
    35    15    20 1   
    36    15    26 1   
    37    16    26 1   
    38    17    18 1   
    39    18    19 1   
    40    18    27 2   
    41    19    40 1   
    42    19    41 1   
    43    19    42 1   
    44    20    43 1   
    45    20    44 1   
    46    20    45 1   
    47    21    46 1   
    48    22    29 1   
    49    22    47 1   
    50    23    48 1   
    51    23    52 2   
    52    24    49 1   
    53    24    51 1   
    54    24    52 1   
    55    25    50 1   
@<TRIPOS>SUBSTRUCTURE
     1 S3I         1 TEMP              0 ****  ****    0 ROOT
