@<TRIPOS>MOLECULE
S3J
   32    33     1     0     0
SMALL
No Charge or Current Charge


@<TRIPOS>ATOM
      1 C4          -1.5380    65.1470    68.1720 c6         1 S3J      -0.025400
      2 C5          -1.9230    63.9160    69.0080 ca         1 S3J      -0.052300
      3 C6          -2.6860    64.0490    70.1870 ca         1 S3J      -0.108500
      4 C7          -3.0330    62.9160    70.9430 ca         1 S3J      -0.117000
      5 C8          -2.6200    61.6400    70.5280 ca         1 S3J      -0.127000
      6 C10         -1.5140    62.6300    68.5990 ca         1 S3J      -0.108500
      7 N           -1.5070    68.0670    67.5840 n3         1 S3J      -0.681600
      8 C           -2.7790    65.8930    67.6180 c6         1 S3J      -0.067900
      9 O           -2.6960    70.1490    65.1620 o          1 S3J      -0.729000
     10 C1          -2.3620    67.1370    66.7920 c6         1 S3J       0.171300
     11 C11         -1.1690    69.3240    66.8360 c3         1 S3J       0.023800
     12 C12         -2.3440    70.2400    66.3320 c          1 S3J       0.720000
     13 C2          -0.2920    67.3780    68.1030 c6         1 S3J       0.171300
     14 C3          -0.6540    66.1430    68.9660 c6         1 S3J      -0.067900
     15 C9          -1.8610    61.4970    69.3560 ca         1 S3J      -0.117000
     16 O1          -2.8520    71.0290    67.1210 o          1 S3J      -0.729000
     17 H1          -0.9500    64.8060    67.3080 hc         1 S3J       0.039700
     18 H2          -3.0130    65.0310    70.5210 ha         1 S3J       0.115000
     19 H3          -3.6220    63.0280    71.8510 ha         1 S3J       0.101500
     20 H4          -2.8890    60.7630    71.1130 ha         1 S3J       0.099000
     21 H5          -0.9250    62.5050    67.6930 ha         1 S3J       0.115000
     22 H7          -3.4340    66.2100    68.4400 hc         1 S3J       0.038450
     23 H8          -3.3720    65.2160    66.9880 hc         1 S3J       0.038450
     24 H9          -3.2740    67.6480    66.4540 h1         1 S3J       0.025200
     25 H10         -1.8250    66.8040    65.8910 h1         1 S3J       0.025200
     26 H11         -0.5610    69.0650    65.9580 h1         1 S3J       0.010200
     27 H12         -0.5340    69.9550    67.4720 h1         1 S3J       0.010200
     28 H13          0.3460    67.0550    67.2660 h1         1 S3J       0.025200
     29 H14          0.3040    68.0710    68.7140 h1         1 S3J       0.025200
     30 H15          0.2670    65.6440    69.2970 hc         1 S3J       0.038450
     31 H16         -1.1730    66.4770    69.8740 hc         1 S3J       0.038450
     32 H17         -1.5400    60.5090    69.0320 ha         1 S3J       0.101500
@<TRIPOS>BOND
     1     1     2 1   
     2     1     8 1   
     3     1    14 1   
     4     1    17 1   
     5     2     3 ar  
     6     2     6 ar  
     7     3     4 ar  
     8     3    18 1   
     9     4     5 ar  
    10     4    19 1   
    11     5    15 ar  
    12     5    20 1   
    13     6    15 ar  
    14     6    21 1   
    15     7    10 1   
    16     7    11 1   
    17     7    13 1   
    18     8    10 1   
    19     8    22 1   
    20     8    23 1   
    21     9    12 1   
    22    10    24 1   
    23    10    25 1   
    24    11    12 1   
    25    11    26 1   
    26    11    27 1   
    27    12    16 1   
    28    13    14 1   
    29    13    28 1   
    30    13    29 1   
    31    14    30 1   
    32    14    31 1   
    33    15    32 1   
@<TRIPOS>SUBSTRUCTURE
     1 S3J         1 TEMP              0 ****  ****    0 ROOT
