@<TRIPOS>MOLECULE
S3J
   32    33     1     0     0
SMALL
bcc


@<TRIPOS>ATOM
      1 C4          -1.5180    65.1420    68.1500 c6         1 S3J      -0.025400
      2 C5          -1.9070    63.9610    69.0020 ca         1 S3J      -0.052300
      3 C6          -2.6690    64.1280    70.1590 ca         1 S3J      -0.126500
      4 C7          -3.0320    63.0390    70.9390 ca         1 S3J      -0.135000
      5 C8          -2.6390    61.7560    70.5760 ca         1 S3J      -0.145000
      6 C10         -1.5210    62.6700    68.6510 ca         1 S3J      -0.126500
      7 N           -1.5180    67.9960    67.5310 n3         1 S3J      -0.681600
      8 C           -2.7360    65.8650    67.5690 c6         1 S3J      -0.067900
      9 O           -2.1630    71.0720    65.7210 o          1 S3J      -0.834300
     10 C1          -2.3120    67.0710    66.7450 c6         1 S3J       0.171300
     11 C11         -1.2120    69.2010    66.7910 c3         1 S3J       0.023800
     12 C12         -2.3920    70.1720    66.5550 c          1 S3J       0.930600
     13 C2          -0.3170    67.3460    68.0190 c6         1 S3J       0.171300
     14 C3          -0.6520    66.1540    68.9030 c6         1 S3J      -0.067900
     15 C9          -1.8810    61.5760    69.4280 ca         1 S3J      -0.135000
     16 O1          -3.4310    70.0150    67.2210 o          1 S3J      -0.834300
     17 H1          -0.9250    64.7690    67.3050 hc         1 S3J       0.039700
     18 H2          -2.9860    65.1200    70.4580 ha         1 S3J       0.133000
     19 H3          -3.6250    63.1930    71.8320 ha         1 S3J       0.119500
     20 H4          -2.9230    60.9070    71.1840 ha         1 S3J       0.117000
     21 H5          -0.9290    62.5170    67.7550 ha         1 S3J       0.133000
     22 H7          -3.3890    66.1990    68.3810 hc         1 S3J       0.038450
     23 H8          -3.3190    65.1820    66.9470 hc         1 S3J       0.038450
     24 H9          -3.1970    67.5890    66.3770 h1         1 S3J       0.025200
     25 H10         -1.7510    66.7230    65.8570 h1         1 S3J       0.025200
     26 H11         -0.7400    68.9760    65.8180 h1         1 S3J       0.010200
     27 H12         -0.4570    69.7610    67.3560 h1         1 S3J       0.010200
     28 H13          0.3280    67.0050    67.1870 h1         1 S3J       0.025200
     29 H14          0.2690    68.0710    68.5900 h1         1 S3J       0.025200
     30 H15          0.2720    65.6810    69.2440 hc         1 S3J       0.038450
     31 H16         -1.1820    66.5050    69.7940 hc         1 S3J       0.038450
     32 H17         -1.5700    60.5810    69.1340 ha         1 S3J       0.119500
@<TRIPOS>BOND
     1     1     2 1   
     2     1     8 1   
     3     1    14 1   
     4     1    17 1   
     5     2     3 ar  
     6     2     6 ar  
     7     3     4 ar  
     8     3    18 1   
     9     4     5 ar  
    10     4    19 1   
    11     5    15 ar  
    12     5    20 1   
    13     6    15 ar  
    14     6    21 1   
    15     7    10 1   
    16     7    11 1   
    17     7    13 1   
    18     8    10 1   
    19     8    22 1   
    20     8    23 1   
    21     9    12 1   
    22    10    24 1   
    23    10    25 1   
    24    11    12 1   
    25    11    26 1   
    26    11    27 1   
    27    12    16 1   
    28    13    14 1   
    29    13    28 1   
    30    13    29 1   
    31    14    30 1   
    32    14    31 1   
    33    15    32 1   
@<TRIPOS>SUBSTRUCTURE
     1 S3J         1 TEMP              0 ****  ****    0 ROOT
