@<TRIPOS>MOLECULE
S3M
   26    27     1     0     0
SMALL
No Charge or Current Charge


@<TRIPOS>ATOM
      1 N1         -27.6730    95.1470   138.7790 nc         1 S3M      -0.521800
      2 C4         -25.3280    94.4880   139.2650 c3         1 S3M       0.137300
      3 C5         -27.5650    98.6590   137.4750 ca         1 S3M      -0.024000
      4 C6         -28.5610    98.9100   136.5070 ca         1 S3M      -0.094000
      5 C7         -28.7330   100.2000   135.9760 ca         1 S3M      -0.111500
      6 C8         -27.9090   101.2530   136.4030 ca         1 S3M      -0.102000
      7 C10        -26.7370    99.7230   137.8900 ca         1 S3M      -0.094000
      8 N          -28.2840    96.2920   138.2960 na         1 S3M       0.140800
      9 C          -29.7480    96.3390   138.1660 c3         1 S3M       0.070900
     10 O          -24.6620    94.9130   140.4700 oh         1 S3M      -0.654000
     11 C1         -27.3740    97.3170   138.0350 cc         1 S3M      -0.104000
     12 C2         -26.1580    96.7940   138.3570 cd         1 S3M      -0.188000
     13 C3         -26.3880    95.4750   138.8060 cd         1 S3M       0.246300
     14 C9         -26.9100   101.0140   137.3600 ca         1 S3M      -0.111500
     15 H1         -25.7970    93.5080   139.4200 h1         1 S3M       0.032700
     16 H2         -24.5970    94.3710   138.4530 h1         1 S3M       0.032700
     17 H3         -29.1950    98.1040   136.1470 ha         1 S3M       0.118000
     18 H4         -29.5020   100.3810   135.2280 ha         1 S3M       0.115000
     19 H5         -28.0410   102.2520   135.9910 ha         1 S3M       0.114000
     20 H6         -25.9650    99.5560   138.6370 ha         1 S3M       0.118000
     21 H7         -30.2080    95.6410   138.8760 h1         1 S3M       0.057367
     22 H8         -30.1060    97.3530   138.3810 h1         1 S3M       0.057367
     23 H9         -30.0330    96.0570   137.1460 h1         1 S3M       0.057367
     24 H10        -24.0080    94.2150   140.6980 ho         1 S3M       0.441000
     25 H11        -25.1920    97.2790   138.2730 ha         1 S3M       0.151000
     26 H12        -26.2690   101.8280   137.6920 ha         1 S3M       0.115000
@<TRIPOS>BOND
     1     1     8 1   
     2     1    13 2   
     3     2    10 1   
     4     2    13 1   
     5     2    15 1   
     6     2    16 1   
     7     3     4 ar  
     8     3     7 ar  
     9     3    11 1   
    10     4     5 ar  
    11     4    17 1   
    12     5     6 ar  
    13     5    18 1   
    14     6    14 ar  
    15     6    19 1   
    16     7    14 ar  
    17     7    20 1   
    18     8     9 1   
    19     8    11 1   
    20     9    21 1   
    21     9    22 1   
    22     9    23 1   
    23    10    24 1   
    24    11    12 2   
    25    12    13 1   
    26    12    25 1   
    27    14    26 1   
@<TRIPOS>SUBSTRUCTURE
     1 S3M         1 TEMP              0 ****  ****    0 ROOT
