@<TRIPOS>MOLECULE
S3M
   26    27     1     0     0
SMALL
bcc


@<TRIPOS>ATOM
      1 N1         -27.6770    95.2640   138.7870 nc         1 S3M      -0.521800
      2 C4         -25.4390    94.3970   139.2760 c3         1 S3M       0.114100
      3 C5         -27.5500    98.6470   137.4800 ca         1 S3M      -0.024000
      4 C6         -28.4380    98.8370   136.4200 ca         1 S3M      -0.112000
      5 C7         -28.6580   100.1050   135.9040 ca         1 S3M      -0.129500
      6 C8         -27.9880   101.2010   136.4300 ca         1 S3M      -0.120000
      7 C10        -26.8770    99.7550   138.0000 ca         1 S3M      -0.112000
      8 N          -28.2110    96.3840   138.3070 na         1 S3M       0.119400
      9 C          -29.6470    96.4820   138.1860 c3         1 S3M       0.041600
     10 O          -24.5390    94.9540   140.2090 oh         1 S3M      -0.591800
     11 C1         -27.2710    97.3180   138.0290 cc         1 S3M      -0.053300
     12 C2         -26.0560    96.7510   138.3580 cd         1 S3M      -0.271300
     13 C3         -26.3720    95.4650   138.8180 cd         1 S3M       0.311600
     14 C9         -27.0930   101.0210   137.4770 ca         1 S3M      -0.129500
     15 H1         -26.0250    93.5740   139.7030 h1         1 S3M       0.032700
     16 H2         -24.9040    93.9870   138.4110 h1         1 S3M       0.032700
     17 H3         -28.9460    97.9900   135.9760 ha         1 S3M       0.136000
     18 H4         -29.3480   100.2330   135.0790 ha         1 S3M       0.133000
     19 H5         -28.1590   102.1900   136.0240 ha         1 S3M       0.132000
     20 H6         -26.1880    99.6250   138.8250 ha         1 S3M       0.136000
     21 H7         -30.1000    95.8730   138.9630 h1         1 S3M       0.057367
     22 H8         -29.9630    97.5130   138.3210 h1         1 S3M       0.057367
     23 H9         -29.9910    96.1300   137.2140 h1         1 S3M       0.057367
     24 H10        -23.8570    94.3010   140.3870 ho         1 S3M       0.402000
     25 H11        -25.0820    97.2010   138.2510 ha         1 S3M       0.169000
     26 H12        -26.5640   101.8690   137.8930 ha         1 S3M       0.133000
@<TRIPOS>BOND
     1     1     8 1   
     2     1    13 2   
     3     2    10 1   
     4     2    13 1   
     5     2    15 1   
     6     2    16 1   
     7     3     4 ar  
     8     3     7 ar  
     9     3    11 1   
    10     4     5 ar  
    11     4    17 1   
    12     5     6 ar  
    13     5    18 1   
    14     6    14 ar  
    15     6    19 1   
    16     7    14 ar  
    17     7    20 1   
    18     8     9 1   
    19     8    11 1   
    20     9    21 1   
    21     9    22 1   
    22     9    23 1   
    23    10    24 1   
    24    11    12 2   
    25    12    13 1   
    26    12    25 1   
    27    14    26 1   
@<TRIPOS>SUBSTRUCTURE
     1 S3M         1 TEMP              0 ****  ****    0 ROOT
