@<TRIPOS>MOLECULE
S3N
   44    47     1     0     0
SMALL
abcg2


@<TRIPOS>ATOM
      1 F01         21.1310    12.8290     1.6810 f          1 S3N      -0.110333
      2 C02         22.2430    13.5230     1.3270 c3         1 S3N       0.343300
      3 F03         22.9870    13.6420     2.4490 f          1 S3N      -0.110333
      4 F04         21.8310    14.7610     0.9930 f          1 S3N      -0.110333
      5 C05         22.9900    12.8380     0.2190 ca         1 S3N      -0.166300
      6 C06         22.8610    13.2750    -1.0970 ca         1 S3N      -0.073000
      7 C07         23.5150    12.5920    -2.1100 ca         1 S3N      -0.071500
      8 C08         24.2980    11.4700    -1.8270 ca         1 S3N      -0.144600
      9 C09         24.4240    11.0500    -0.5000 ca         1 S3N      -0.071500
     10 C10         23.7740    11.7280     0.5190 ca         1 S3N      -0.073000
     11 C11         24.9550    10.7540    -2.9680 c          1 S3N       0.591700
     12 O12         24.8590    11.1980    -4.1000 o          1 S3N      -0.514100
     13 C13         25.6620     9.4500    -2.6820 c5         1 S3N      -0.202700
     14 C14         24.6590     8.2740    -2.4680 c5         1 S3N       0.149800
     15 N15         25.4360     7.0660    -2.7170 n7         1 S3N      -0.825400
     16 C16         26.3000     7.3980    -3.8570 c5         1 S3N       0.144800
     17 C17         26.5710     8.9410    -3.8220 c5         1 S3N      -0.051400
     18 C18         28.0190     9.3110    -3.6380 ca         1 S3N      -0.038300
     19 C19         28.7430     8.8580    -2.5450 ca         1 S3N      -0.109000
     20 C20         30.0930     9.1890    -2.3790 ca         1 S3N       0.180400
     21 C21         30.7220    10.0070    -3.3440 ca         1 S3N      -0.198600
     22 C22         29.9920    10.4660    -4.4460 ca         1 S3N      -0.036000
     23 C23         28.6640    10.1210    -4.5890 ca         1 S3N      -0.122000
     24 C24         32.1280    10.3570    -3.1760 c          1 S3N       0.573600
     25 O25         32.7940    11.0600    -3.9290 o          1 S3N      -0.534000
     26 N26         32.6910     9.8060    -2.0360 ns         1 S3N      -0.434400
     27 C27         32.0090     9.0230    -1.1530 cc         1 S3N       0.503800
     28 N28         30.7680     8.7000    -1.2690 nd         1 S3N      -0.625100
     29 H06         22.2530    14.1390    -1.3290 ha         1 S3N       0.136000
     30 H10         23.8780    11.3930     1.5430 ha         1 S3N       0.136000
     31 H07         23.4180    12.9200    -3.1350 ha         1 S3N       0.132500
     32 H09         25.0300    10.1930    -0.2440 ha         1 S3N       0.132500
     33 H13         26.2450     9.5560    -1.7670 hc         1 S3N       0.072700
     34 H141        24.2210     8.2640    -1.4720 h1         1 S3N       0.065200
     35 H142        23.8530     8.3490    -3.2030 h1         1 S3N       0.065200
     36 H17         26.2270     9.3810    -4.7550 hc         1 S3N       0.086700
     37 H15         26.0180     6.8860    -1.9060 hn         1 S3N       0.403000
     38 H161        27.2170     6.8130    -3.8200 h1         1 S3N       0.064700
     39 H162        25.7810     7.1560    -4.7860 h1         1 S3N       0.064700
     40 H19         28.2810     8.2320    -1.7910 ha         1 S3N       0.126000
     41 H23         28.1030    10.4770    -5.4450 ha         1 S3N       0.127000
     42 H22         30.4850    11.0900    -5.1780 ha         1 S3N       0.139000
     43 H26         33.6670    10.0090    -1.8600 hn         1 S3N       0.333500
     44 H27         32.5900     8.6680    -0.3090 h5         1 S3N       0.049800
@<TRIPOS>BOND
     1     1     2 1   
     2     2     3 1   
     3     2     4 1   
     4     2     5 1   
     5     5     6 ar  
     6     5    10 ar  
     7     6     7 ar  
     8     6    29 1   
     9     7     8 ar  
    10     7    31 1   
    11     8     9 ar  
    12     8    11 1   
    13     9    10 ar  
    14     9    32 1   
    15    10    30 1   
    16    11    12 2   
    17    11    13 1   
    18    13    14 1   
    19    13    17 1   
    20    13    33 1   
    21    14    15 1   
    22    14    34 1   
    23    14    35 1   
    24    15    16 1   
    25    15    37 1   
    26    16    17 1   
    27    16    38 1   
    28    16    39 1   
    29    17    18 1   
    30    17    36 1   
    31    18    19 ar  
    32    18    23 ar  
    33    19    20 ar  
    34    19    40 1   
    35    20    21 ar  
    36    20    28 1   
    37    21    22 ar  
    38    21    24 1   
    39    22    23 ar  
    40    22    42 1   
    41    23    41 1   
    42    24    25 2   
    43    24    26 1   
    44    26    27 1   
    45    26    43 1   
    46    27    28 2   
    47    27    44 1   
@<TRIPOS>SUBSTRUCTURE
     1 S3N         1 TEMP              0 ****  ****    0 ROOT
