@<TRIPOS>MOLECULE
S3N
   44    47     1     0     0
SMALL
No Charge or Current Charge


@<TRIPOS>ATOM
      1 F01         22.5250    14.1510     1.5270 f          1 S3N      -0.110333
      2 C02         23.8240    13.8800     1.2710 c3         1 S3N       0.343300
      3 F03         24.3680    13.4270     2.4240 f          1 S3N      -0.110333
      4 F04         24.4270    15.0610     0.9990 f          1 S3N      -0.110333
      5 C05         23.9670    12.8740     0.1230 ca         1 S3N      -0.166300
      6 C06         24.0530    13.3160    -1.2140 ca         1 S3N      -0.073000
      7 C07         24.1740    12.3920    -2.2660 ca         1 S3N      -0.071500
      8 C08         24.2180    11.0070    -2.0070 ca         1 S3N      -0.144600
      9 C09         24.1050    10.5620    -0.6700 ca         1 S3N      -0.071500
     10 C10         23.9830    11.4870     0.3820 ca         1 S3N      -0.073000
     11 C11         24.3370    10.0450    -3.1680 c          1 S3N       0.591700
     12 O12         23.7220    10.2090    -4.2160 o          1 S3N      -0.514100
     13 C13         25.3170     8.8790    -2.8660 c5         1 S3N      -0.202700
     14 C14         24.5410     7.5470    -2.9030 c5         1 S3N       0.149800
     15 N15         25.6500     6.5780    -3.0030 n7         1 S3N      -0.825400
     16 C16         26.4930     7.1120    -4.1070 c5         1 S3N       0.144800
     17 C17         26.3330     8.6680    -4.0410 c5         1 S3N      -0.051400
     18 C18         27.6660     9.3150    -3.6340 ca         1 S3N      -0.038300
     19 C19         28.4360     8.8470    -2.5450 ca         1 S3N      -0.109000
     20 C20         29.6480     9.4610    -2.1800 ca         1 S3N       0.180400
     21 C21         30.0980    10.5700    -2.9210 ca         1 S3N      -0.198600
     22 C22         29.3410    11.0520    -4.0070 ca         1 S3N      -0.036000
     23 C23         28.1340    10.4270    -4.3570 ca         1 S3N      -0.122000
     24 C24         31.3770    11.2140    -2.5320 c          1 S3N       0.573600
     25 O25         31.8610    12.1790    -3.1030 o          1 S3N      -0.534000
     26 N26         31.9780    10.6340    -1.4700 ns         1 S3N      -0.434400
     27 C27         31.4830     9.5520    -0.7900 cc         1 S3N       0.503800
     28 N28         30.3430     8.9220    -1.0820 nd         1 S3N      -0.625100
     29 H06         24.0230    14.3790    -1.4460 ha         1 S3N       0.136000
     30 H10         23.8920    11.1160     1.4010 ha         1 S3N       0.136000
     31 H07         24.2400    12.7570    -3.2900 ha         1 S3N       0.132500
     32 H09         24.0940     9.5000    -0.4360 ha         1 S3N       0.132500
     33 H13         25.8090     9.0150    -1.8970 hc         1 S3N       0.072700
     34 H141        23.9320     7.3890    -2.0000 h1         1 S3N       0.065200
     35 H142        23.8780     7.4790    -3.7790 h1         1 S3N       0.065200
     36 H17         25.9590     9.0440    -5.0010 hc         1 S3N       0.086700
     37 H15         26.1890     6.6310    -2.1310 hn         1 S3N       0.403000
     38 H161        27.5360     6.7750    -4.0260 h1         1 S3N       0.064700
     39 H162        26.1170     6.7460    -5.0740 h1         1 S3N       0.064700
     40 H19         28.0910     7.9970    -1.9650 ha         1 S3N       0.126000
     41 H23         27.5600    10.8150    -5.1960 ha         1 S3N       0.127000
     42 H22         29.6850    11.9110    -4.5810 ha         1 S3N       0.139000
     43 H26         32.8520    11.0420    -1.1720 hn         1 S3N       0.333500
     44 H27         32.1240     9.2480     0.0290 h5         1 S3N       0.049800
@<TRIPOS>BOND
     1     1     2 1   
     2     2     3 1   
     3     2     4 1   
     4     2     5 1   
     5     5     6 ar  
     6     5    10 ar  
     7     6     7 ar  
     8     6    29 1   
     9     7     8 ar  
    10     7    31 1   
    11     8     9 ar  
    12     8    11 1   
    13     9    10 ar  
    14     9    32 1   
    15    10    30 1   
    16    11    12 2   
    17    11    13 1   
    18    13    14 1   
    19    13    17 1   
    20    13    33 1   
    21    14    15 1   
    22    14    34 1   
    23    14    35 1   
    24    15    16 1   
    25    15    37 1   
    26    16    17 1   
    27    16    38 1   
    28    16    39 1   
    29    17    18 1   
    30    17    36 1   
    31    18    19 ar  
    32    18    23 ar  
    33    19    20 ar  
    34    19    40 1   
    35    20    21 ar  
    36    20    28 1   
    37    21    22 ar  
    38    21    24 1   
    39    22    23 ar  
    40    22    42 1   
    41    23    41 1   
    42    24    25 2   
    43    24    26 1   
    44    26    27 1   
    45    26    43 1   
    46    27    28 2   
    47    27    44 1   
@<TRIPOS>SUBSTRUCTURE
     1 S3N         1 TEMP              0 ****  ****    0 ROOT
