@<TRIPOS>MOLECULE
S3O
   43    45     1     0     0
SMALL
No Charge or Current Charge


@<TRIPOS>ATOM
      1 C01         -0.2960    -3.9890     0.8550 c6         1 S3O      -0.094400
      2 C02         -1.7030    -4.1990     0.2590 c6         1 S3O       0.234800
      3 N03         -2.4470    -2.9380     0.3870 nu         1 S3O      -0.979200
      4 C04         -1.8700    -1.6990     0.1370 ca         1 S3O       0.400000
      5 C05         -0.4780    -1.5660     0.0190 ca         1 S3O      -0.223300
      6 C06          0.4230    -2.8080     0.1570 c6         1 S3O      -0.009100
      7 C07         -2.6840    -0.5810     0.0210 ca         1 S3O      -0.316000
      8 C08         -2.0830     0.6530    -0.1970 ca         1 S3O       0.521900
      9 N09         -0.7620     0.8070    -0.3590 nb         1 S3O      -0.703000
     10 C10          0.0360    -0.2720    -0.2350 cp         1 S3O       0.470500
     11 C11          1.5000    -0.0230    -0.4110 cp         1 S3O      -0.144500
     12 N12         -2.8580     1.8020    -0.3870 ns         1 S3O      -0.334900
     13 C13          2.2650     0.7260     0.5340 ca         1 S3O      -0.027300
     14 C14          3.6480     0.9530     0.2960 ca         1 S3O      -0.083300
     15 C15          4.2590     0.4170    -0.8540 ca         1 S3O      -0.102000
     16 C16          3.5160    -0.3340    -1.7730 ca         1 S3O      -0.121000
     17 C17          2.1500    -0.5480    -1.5540 ca         1 S3O      -0.095000
     18 C18          4.5050     1.7730     1.2590 c3         1 S3O      -0.044800
     19 C19          1.6110     1.2820     1.8040 c3         1 S3O      -0.052800
     20 C20         -2.6070     3.1100    -0.0370 c          1 S3O       0.612100
     21 C21         -3.6890     4.0890    -0.4800 c3         1 S3O      -0.186100
     22 O22         -1.6250     3.4790     0.5940 o          1 S3O      -0.542100
     23 H1          -0.3810    -3.7850     1.9320 hc         1 S3O       0.052700
     24 H2          -1.6050    -4.4780    -0.8010 h1         1 S3O       0.038700
     25 H3           1.3360    -2.5590     0.7150 hc         1 S3O       0.053700
     26 H4          -3.7620    -0.6600     0.1070 ha         1 S3O       0.114000
     27 H5          -3.7430     1.6360    -0.8450 hn         1 S3O       0.147000
     28 H6           5.3180     0.5830    -1.0390 ha         1 S3O       0.107000
     29 H7           3.9970    -0.7430    -2.6580 ha         1 S3O       0.111000
     30 H8           1.5790    -1.1220    -2.2820 ha         1 S3O       0.112000
     31 H9           4.6690     1.2330     2.1990 hc         1 S3O       0.040367
     32 H10          5.4910     1.9980     0.8360 hc         1 S3O       0.040367
     33 H11          4.0320     2.7330     1.4960 hc         1 S3O       0.040367
     34 H12          1.3140     2.3280     1.6630 hc         1 S3O       0.048700
     35 H13          0.7170     0.7200     2.0930 hc         1 S3O       0.048700
     36 H14          2.2830     1.2370     2.6680 hc         1 S3O       0.048700
     37 H15         -4.6580     3.7470    -0.0980 hc         1 S3O       0.060367
     38 H16         -3.4760     5.1200    -0.1780 hc         1 S3O       0.060367
     39 H17         -3.8250     4.0040    -1.5640 hc         1 S3O       0.060367
     40 H18          0.2980    -4.9070     0.7550 hc         1 S3O       0.052700
     41 H19         -2.2210    -5.0190     0.7780 h1         1 S3O       0.038700
     42 H20         -3.4680    -2.9660     0.4020 hn         1 S3O       0.490000
     43 H21          0.7490    -3.1260    -0.8430 hc         1 S3O       0.053700
@<TRIPOS>BOND
     1     1     2 1   
     2     1     6 1   
     3     1    23 1   
     4     1    40 1   
     5     2     3 1   
     6     2    24 1   
     7     2    41 1   
     8     3     4 1   
     9     3    42 1   
    10     4     5 ar  
    11     4     7 ar  
    12     5     6 1   
    13     5    10 ar  
    14     6    25 1   
    15     6    43 1   
    16     7     8 ar  
    17     7    26 1   
    18     8     9 ar  
    19     8    12 1   
    20     9    10 ar  
    21    10    11 1   
    22    11    13 ar  
    23    11    17 ar  
    24    12    20 1   
    25    12    27 1   
    26    13    14 ar  
    27    13    19 1   
    28    14    15 ar  
    29    14    18 1   
    30    15    16 ar  
    31    15    28 1   
    32    16    17 ar  
    33    16    29 1   
    34    17    30 1   
    35    18    31 1   
    36    18    32 1   
    37    18    33 1   
    38    19    34 1   
    39    19    35 1   
    40    19    36 1   
    41    20    21 1   
    42    20    22 2   
    43    21    37 1   
    44    21    38 1   
    45    21    39 1   
@<TRIPOS>SUBSTRUCTURE
     1 S3O         1 TEMP              0 ****  ****    0 ROOT
