@<TRIPOS>MOLECULE
S3O
   43    45     1     0     0
SMALL
bcc


@<TRIPOS>ATOM
      1 C01         -0.2860    -3.8690     0.9230 c6         1 S3O      -0.094400
      2 C02         -1.6610    -4.1530     0.3440 c6         1 S3O       0.234800
      3 N03         -2.4160    -2.9240     0.2500 nu         1 S3O      -0.785600
      4 C04         -1.8470    -1.7190     0.0360 ca         1 S3O       0.261600
      5 C05         -0.4430    -1.5870    -0.0700 ca         1 S3O      -0.288600
      6 C06          0.4250    -2.8070     0.0920 c6         1 S3O      -0.009100
      7 C07         -2.6290    -0.5640    -0.0560 ca         1 S3O      -0.399300
      8 C08         -1.9980     0.6530    -0.2680 ca         1 S3O       0.587200
      9 N09         -0.6920     0.7880    -0.4030 nb         1 S3O      -0.703000
     10 C10          0.0560    -0.3140    -0.2920 cp         1 S3O       0.535800
     11 C11          1.5190    -0.0850    -0.4410 cp         1 S3O      -0.144500
     12 N12         -2.8070     1.7900    -0.3720 ns         1 S3O      -0.568400
     13 C13          2.2160     0.6870     0.4960 ca         1 S3O      -0.027300
     14 C14          3.5820     0.9400     0.2910 ca         1 S3O      -0.083300
     15 C15          4.2160     0.4060    -0.8280 ca         1 S3O      -0.120000
     16 C16          3.5240    -0.3710    -1.7450 ca         1 S3O      -0.139000
     17 C17          2.1750    -0.6130    -1.5490 ca         1 S3O      -0.113000
     18 C18          4.3690     1.7810     1.2550 c3         1 S3O      -0.044800
     19 C19          1.5140     1.2450     1.7020 c3         1 S3O      -0.052800
     20 C20         -2.4840     3.0950    -0.1350 c          1 S3O       0.679100
     21 C21         -3.6400     4.0470    -0.3320 c3         1 S3O      -0.186100
     22 O22         -1.3830     3.4860     0.1960 o          1 S3O      -0.542100
     23 H1          -0.3900    -3.5280     1.9560 hc         1 S3O       0.052700
     24 H2          -1.5580    -4.6290    -0.6380 h1         1 S3O       0.038700
     25 H3           1.3730    -2.5380     0.5600 hc         1 S3O       0.053700
     26 H4          -3.7060    -0.6240     0.0490 ha         1 S3O       0.132000
     27 H5          -3.7830     1.6020    -0.5330 hn         1 S3O       0.313500
     28 H6           5.2700     0.6050    -0.9820 ha         1 S3O       0.125000
     29 H7           4.0330    -0.7790    -2.6090 ha         1 S3O       0.129000
     30 H8           1.6200    -1.2050    -2.2670 ha         1 S3O       0.130000
     31 H9           4.4220     1.3240     2.2460 hc         1 S3O       0.040367
     32 H10          5.3900     1.9210     0.9040 hc         1 S3O       0.040367
     33 H11          3.9260     2.7700     1.3880 hc         1 S3O       0.040367
     34 H12          1.0810     2.2240     1.4880 hc         1 S3O       0.048700
     35 H13          0.6930     0.6060     2.0240 hc         1 S3O       0.048700
     36 H14          2.1910     1.3570     2.5470 hc         1 S3O       0.048700
     37 H15         -4.6050     3.5570    -0.4420 hc         1 S3O       0.060367
     38 H16         -3.6920     4.7340     0.5110 hc         1 S3O       0.060367
     39 H17         -3.4620     4.6440    -1.2280 hc         1 S3O       0.060367
     40 H18          0.2990    -4.7890     0.9430 hc         1 S3O       0.052700
     41 H19         -2.2120    -4.8460     0.9800 h1         1 S3O       0.038700
     42 H20         -3.4200    -2.9810     0.2670 hn         1 S3O       0.434800
     43 H21          0.6780    -3.2300    -0.8850 hc         1 S3O       0.053700
@<TRIPOS>BOND
     1     1     2 1   
     2     1     6 1   
     3     1    23 1   
     4     1    40 1   
     5     2     3 1   
     6     2    24 1   
     7     2    41 1   
     8     3     4 1   
     9     3    42 1   
    10     4     5 ar  
    11     4     7 ar  
    12     5     6 1   
    13     5    10 ar  
    14     6    25 1   
    15     6    43 1   
    16     7     8 ar  
    17     7    26 1   
    18     8     9 ar  
    19     8    12 1   
    20     9    10 ar  
    21    10    11 1   
    22    11    13 ar  
    23    11    17 ar  
    24    12    20 1   
    25    12    27 1   
    26    13    14 ar  
    27    13    19 1   
    28    14    15 ar  
    29    14    18 1   
    30    15    16 ar  
    31    15    28 1   
    32    16    17 ar  
    33    16    29 1   
    34    17    30 1   
    35    18    31 1   
    36    18    32 1   
    37    18    33 1   
    38    19    34 1   
    39    19    35 1   
    40    19    36 1   
    41    20    21 1   
    42    20    22 2   
    43    21    37 1   
    44    21    38 1   
    45    21    39 1   
@<TRIPOS>SUBSTRUCTURE
     1 S3O         1 TEMP              0 ****  ****    0 ROOT
