@<TRIPOS>MOLECULE
S3P
   24    24     1     0     0
SMALL
No Charge or Current Charge


@<TRIPOS>ATOM
      1 C1          56.3800    12.4010    28.1060 ce         1 S3P      -0.253400
      2 C2          55.3230    11.5450    28.2060 c2         1 S3P      -0.168200
      3 C3          55.3160    10.2500    29.0150 c6         1 S3P       0.273500
      4 C4          56.5050    10.2040    30.0410 c6         1 S3P       0.166300
      5 C5          57.8200    10.6420    29.3370 c6         1 S3P       0.116300
      6 C6          57.6950    12.1150    28.8650 c6         1 S3P      -0.020200
      7 C7          56.3160    13.6600    27.2690 c          1 S3P       0.711200
      8 O1          55.3300     9.1390    28.0930 os         1 S3P      -0.578400
      9 O2          56.7000     8.9120    30.6450 oh         1 S3P      -0.625000
     10 O3          58.9500    10.4990    30.2260 oh         1 S3P      -0.720000
     11 O4          55.2870    13.9020    26.6580 o          1 S3P      -0.771000
     12 O5          57.2840    14.4040    27.2370 o          1 S3P      -0.771000
     13 P1          54.0110     8.2250    27.9620 p5         1 S3P       1.286900
     14 O6          52.8710     9.0600    27.4940 o          1 S3P      -0.937500
     15 O7          53.6730     7.5980    29.2690 o          1 S3P      -0.937500
     16 O8          54.2700     7.1530    26.9620 o          1 S3P      -0.937500
     17 H2          54.3920    11.7420    27.6740 ha         1 S3P       0.213000
     18 H3          54.3840    10.2250    29.5990 h1         1 S3P       0.042700
     19 H4          56.2900    10.9340    30.8350 h1         1 S3P      -0.008300
     20 H5          57.9580    10.0090    28.4460 h1         1 S3P       0.075700
     21 H61         58.5590    12.3530    28.2300 hc         1 S3P       0.018200
     22 H62         57.7510    12.7870    29.7320 hc         1 S3P       0.018200
     23 HO2         57.6580     8.9070    30.8640 ho         1 S3P       0.398000
     24 HO3         59.7250    10.8860    29.7620 ho         1 S3P       0.408000
@<TRIPOS>BOND
     1     1     2 2   
     2     1     6 1   
     3     1     7 1   
     4     2     3 1   
     5     2    17 1   
     6     3     4 1   
     7     3     8 1   
     8     3    18 1   
     9     4     5 1   
    10     4     9 1   
    11     4    19 1   
    12     5     6 1   
    13     5    10 1   
    14     5    20 1   
    15     6    21 1   
    16     6    22 1   
    17     7    11 1   
    18     7    12 1   
    19     8    13 1   
    20     9    23 1   
    21    10    24 1   
    22    13    14 1   
    23    13    15 1   
    24    13    16 1   
@<TRIPOS>SUBSTRUCTURE
     1 S3P         1 TEMP              0 ****  ****    0 ROOT
