@<TRIPOS>MOLECULE
S3P
   24    24     1     0     0
SMALL
abcg2


@<TRIPOS>ATOM
      1 C1          56.3500    12.3710    28.1260 ce         1 S3P      -0.253400
      2 C2          55.3030    11.5590    28.2900 c2         1 S3P      -0.168200
      3 C3          55.3320    10.2760    29.0790 c6         1 S3P       0.273500
      4 C4          56.5220    10.2880    30.0410 c6         1 S3P       0.166300
      5 C5          57.7880    10.6540    29.2870 c6         1 S3P       0.116300
      6 C6          57.6830    12.0820    28.7680 c6         1 S3P      -0.020200
      7 C7          56.2220    13.6580    27.3120 c          1 S3P       0.711200
      8 O1          55.4150     9.1690    28.1840 os         1 S3P      -0.578400
      9 O2          56.6490     9.0370    30.7080 oh         1 S3P      -0.625000
     10 O3          58.8860    10.4990    30.2010 oh         1 S3P      -0.720000
     11 O4          55.1660    13.8430    26.6530 o          1 S3P      -0.771000
     12 O5          57.1960    14.4570    27.3740 o          1 S3P      -0.771000
     13 P1          54.0520     8.2120    27.9020 p5         1 S3P       1.286900
     14 O6          52.9920     9.1500    27.3320 o          1 S3P      -0.937500
     15 O7          53.6660     7.6180    29.2530 o          1 S3P      -0.937500
     16 O8          54.6080     7.2050    26.9040 o          1 S3P      -0.937500
     17 H2          54.3730    11.7990    27.7910 ha         1 S3P       0.213000
     18 H3          54.4170    10.1900    29.6740 h1         1 S3P       0.042700
     19 H4          56.3310    11.0760    30.7840 h1         1 S3P      -0.008300
     20 H5          57.9120     9.9530    28.4560 h1         1 S3P       0.075700
     21 H61         58.4880    12.2860    28.0590 hc         1 S3P       0.018200
     22 H62         57.8420    12.7640    29.6100 hc         1 S3P       0.018200
     23 HO2         57.5560     9.0100    31.0460 ho         1 S3P       0.398000
     24 HO3         59.6990    10.3980    29.6920 ho         1 S3P       0.408000
@<TRIPOS>BOND
     1     1     2 2   
     2     1     6 1   
     3     1     7 1   
     4     2     3 1   
     5     2    17 1   
     6     3     4 1   
     7     3     8 1   
     8     3    18 1   
     9     4     5 1   
    10     4     9 1   
    11     4    19 1   
    12     5     6 1   
    13     5    10 1   
    14     5    20 1   
    15     6    21 1   
    16     6    22 1   
    17     7    11 1   
    18     7    12 1   
    19     8    13 1   
    20     9    23 1   
    21    10    24 1   
    22    13    14 1   
    23    13    15 1   
    24    13    16 1   
@<TRIPOS>SUBSTRUCTURE
     1 S3P         1 TEMP              0 ****  ****    0 ROOT
