@<TRIPOS>MOLECULE
S3Q
   48    50     1     0     0
SMALL
bcc


@<TRIPOS>ATOM
      1 N1         -52.9710     1.4370   -42.5450 nu         1 S3Q      -0.868900
      2 C4         -57.0740    -0.0410   -43.0090 ca         1 S3Q      -0.140000
      3 C5         -55.8430     0.1790   -42.4100 ca         1 S3Q      -0.093000
      4 C6         -55.3830     1.4740   -42.1870 ca         1 S3Q      -0.118300
      5 C7         -56.1730     2.5440   -42.5890 ca         1 S3Q      -0.049000
      6 C8         -57.3990     2.3240   -43.2090 ca         1 S3Q      -0.200300
      7 C10        -50.6140     2.5870   -46.6190 ca         1 S3Q      -0.270300
      8 C13        -51.1690     0.6160   -44.7220 ca         1 S3Q      -0.169000
      9 C15        -51.7460     1.8980   -44.5860 ca         1 S3Q      -0.305600
     10 C21        -50.0220    -1.9180   -45.1170 c3         1 S3Q       0.121700
     11 C24        -48.9470     1.8870   -48.7590 c3         1 S3Q       0.119700
     12 C11        -50.0600     1.3390   -46.7480 ca         1 S3Q       0.156100
     13 C12        -50.3460     0.3280   -45.7780 ca         1 S3Q       0.108100
     14 C14        -51.4670     2.8910   -45.5360 ca         1 S3Q       0.467600
     15 C16        -52.6340     2.2900   -43.5310 ca         1 S3Q       0.737200
     16 C18        -52.7810     4.3840   -44.4490 ca         1 S3Q       0.712300
     17 C2         -53.7680     0.9170   -40.3080 c3         1 S3Q      -0.101100
     18 C25        -58.2420     3.4840   -43.6390 c3         1 S3Q       0.720200
     19 C3         -54.0160     1.7230   -41.5750 c3         1 S3Q       0.282800
     20 C9         -57.8580     1.0290   -43.4130 ca         1 S3Q      -0.072000
     21 F26        -57.5080     4.5650   -43.9300 f          1 S3Q      -0.235300
     22 F27        -58.9700     3.2000   -44.7270 f          1 S3Q      -0.235300
     23 F28        -59.1140     3.8570   -42.6890 f          1 S3Q      -0.235300
     24 N17        -53.1300     3.5110   -43.4890 nb         1 S3Q      -0.825000
     25 N19        -51.9900     4.1430   -45.4600 nb         1 S3Q      -0.740000
     26 O23        -49.2460     0.9560   -47.7360 os         1 S3Q      -0.294900
     27 H29        -52.7010     0.4700   -42.6300 hn         1 S3Q       0.430800
     28 H34        -57.4230    -1.0520   -43.1700 ha         1 S3Q       0.138000
     29 H35        -55.2400    -0.6730   -42.1180 ha         1 S3Q       0.129000
     30 H36        -55.8100     3.5500   -42.4240 ha         1 S3Q       0.161000
     31 H38        -50.4180     3.3720   -47.3370 ha         1 S3Q       0.160000
     32 H39        -51.3770    -0.1530   -43.9900 ha         1 S3Q       0.128000
     33 H40        -49.4790    -2.7810   -45.4950 h1         1 S3Q       0.039700
     34 H41        -49.6760    -1.6980   -44.1040 h1         1 S3Q       0.039700
     35 H42        -51.0880    -2.1600   -45.0800 h1         1 S3Q       0.039700
     36 H43        -53.0700     6.3960   -45.1390 hc         1 S3Q       0.057033
     37 H44        -54.4670     5.6930   -44.3050 hc         1 S3Q       0.057033
     38 H45        -53.0720     6.2120   -43.3780 hc         1 S3Q       0.057033
     39 H46        -48.3000     1.3720   -49.4640 h1         1 S3Q       0.045033
     40 H47        -49.8490     2.2170   -49.2810 h1         1 S3Q       0.045033
     41 H48        -48.4230     2.7630   -48.3700 h1         1 S3Q       0.045033
     42 H31        -54.5410     1.1270   -39.5700 hc         1 S3Q       0.045700
     43 H32        -53.7660    -0.1590   -40.4940 hc         1 S3Q       0.045700
     44 H30        -52.8030     1.1830   -39.8770 hc         1 S3Q       0.045700
     45 H33        -53.9440     2.7800   -41.3240 h1         1 S3Q       0.094700
     46 H37        -58.8110     0.8400   -43.8870 ha         1 S3Q       0.148000
     47 O20        -49.7550    -0.8550   -46.0080 os         1 S3Q      -0.293900
     48 C22        -53.3770     5.7510   -44.3190 c3         1 S3Q      -0.134400
@<TRIPOS>BOND
     1     1    15 1   
     2     1    19 1   
     3     1    27 1   
     4     2     3 ar  
     5     2    20 ar  
     6     2    28 1   
     7     3     4 ar  
     8     3    29 1   
     9     4     5 ar  
    10     4    19 1   
    11     5     6 ar  
    12     5    30 1   
    13     6    18 1   
    14     6    20 ar  
    15     7    12 ar  
    16     7    14 ar  
    17     7    31 1   
    18     8     9 ar  
    19     8    13 ar  
    20     8    32 1   
    21     9    14 ar  
    22     9    15 ar  
    23    10    33 1   
    24    10    34 1   
    25    10    35 1   
    26    10    47 1   
    27    11    26 1   
    28    11    39 1   
    29    11    40 1   
    30    11    41 1   
    31    12    13 ar  
    32    12    26 1   
    33    13    47 1   
    34    14    25 ar  
    35    15    24 ar  
    36    16    24 ar  
    37    16    25 ar  
    38    16    48 1   
    39    17    19 1   
    40    17    42 1   
    41    17    43 1   
    42    17    44 1   
    43    18    21 1   
    44    18    22 1   
    45    18    23 1   
    46    19    45 1   
    47    20    46 1   
    48    36    48 1   
    49    37    48 1   
    50    38    48 1   
@<TRIPOS>SUBSTRUCTURE
     1 S3Q         1 TEMP              0 ****  ****    0 ROOT
