@<TRIPOS>MOLECULE
S3Q
   48    50     1     0     0
SMALL
No Charge or Current Charge


@<TRIPOS>ATOM
      1 N1         -52.8900     1.5080   -42.4320 nu         1 S3Q      -0.924100
      2 C4         -56.9310     0.1010   -43.4890 ca         1 S3Q      -0.122000
      3 C5         -55.7170     0.2300   -42.7960 ca         1 S3Q      -0.075000
      4 C6         -55.3400     1.4730   -42.2480 ca         1 S3Q      -0.118300
      5 C7         -56.1910     2.5850   -42.4190 ca         1 S3Q      -0.031000
      6 C8         -57.4070     2.4680   -43.1250 ca         1 S3Q      -0.200300
      7 C10        -50.6960     2.5240   -46.6880 ca         1 S3Q      -0.187000
      8 C13        -51.1290     0.6680   -44.6190 ca         1 S3Q      -0.151000
      9 C15        -51.7450     1.9410   -44.5690 ca         1 S3Q      -0.175000
     10 C21        -49.8360    -1.9330   -44.7840 c3         1 S3Q       0.144900
     11 C24        -48.9720     1.7730   -48.9020 c3         1 S3Q       0.142900
     12 C11        -50.0770     1.2560   -46.7450 ca         1 S3Q       0.156100
     13 C12        -50.2940     0.3220   -45.7060 ca         1 S3Q       0.108100
     14 C14        -51.5270     2.8730   -45.6120 ca         1 S3Q       0.074000
     15 C16        -52.5930     2.3450   -43.5080 ca         1 S3Q       0.408900
     16 C18        -52.9010     4.3740   -44.5250 ca         1 S3Q       0.186300
     17 C2         -53.8490     0.6320   -40.3450 c3         1 S3Q      -0.101100
     18 C25        -58.3070     3.6970   -43.2950 c3         1 S3Q       0.356300
     19 C3         -54.0160     1.6410   -41.4970 c3         1 S3Q       0.282800
     20 C9         -57.7760     1.2110   -43.6520 ca         1 S3Q      -0.054000
     21 F26        -57.5930     4.8040   -43.6040 f          1 S3Q      -0.114000
     22 F27        -59.2270     3.5440   -44.2750 f          1 S3Q      -0.114000
     23 F28        -58.9850     3.9700   -42.1570 f          1 S3Q      -0.114000
     24 N17        -53.1640     3.5620   -43.4870 nb         1 S3Q      -0.299000
     25 N19        -52.1120     4.0880   -45.5800 nb         1 S3Q      -0.214000
     26 O23        -49.2530     0.8930   -47.8000 os         1 S3Q      -0.318100
     27 H29        -52.4390     0.6000   -42.4650 hn         1 S3Q       0.486000
     28 H34        -57.2170    -0.8620   -43.9060 ha         1 S3Q       0.120000
     29 H35        -55.0690    -0.6370   -42.6930 ha         1 S3Q       0.111000
     30 H36        -55.9000     3.5490   -42.0050 ha         1 S3Q       0.143000
     31 H38        -50.5430     3.2550   -47.4760 ha         1 S3Q       0.142000
     32 H39        -51.2990    -0.0450   -43.8200 ha         1 S3Q       0.110000
     33 H40        -49.2590    -2.8260   -45.0530 h1         1 S3Q       0.039700
     34 H41        -49.4780    -1.5790   -43.8090 h1         1 S3Q       0.039700
     35 H42        -50.8890    -2.2250   -44.6900 h1         1 S3Q       0.039700
     36 H43        -53.4690     6.2550   -45.4650 hc         1 S3Q       0.057033
     37 H44        -54.6290     5.6600   -44.2700 hc         1 S3Q       0.057033
     38 H45        -53.1000     6.3810   -43.7380 hc         1 S3Q       0.057033
     39 H46        -48.3010     1.2820   -49.6180 h1         1 S3Q       0.045033
     40 H47        -49.8950     2.0420   -49.4320 h1         1 S3Q       0.045033
     41 H48        -48.4840     2.6920   -48.5540 h1         1 S3Q       0.045033
     42 H31        -54.6910     0.7110   -39.6480 hc         1 S3Q       0.045700
     43 H32        -53.8030    -0.3990   -40.7140 hc         1 S3Q       0.045700
     44 H30        -52.9280     0.8370   -39.7860 hc         1 S3Q       0.045700
     45 H33        -53.9950     2.6450   -41.0450 h1         1 S3Q       0.094700
     46 H37        -58.7120     1.0870   -44.1920 ha         1 S3Q       0.130000
     47 O20        -49.6750    -0.9150   -45.7880 os         1 S3Q      -0.317100
     48 C22        -53.5600     5.7420   -44.5000 c3         1 S3Q      -0.134400
@<TRIPOS>BOND
     1     1    15 1   
     2     1    19 1   
     3     1    27 1   
     4     2     3 ar  
     5     2    20 ar  
     6     2    28 1   
     7     3     4 ar  
     8     3    29 1   
     9     4     5 ar  
    10     4    19 1   
    11     5     6 ar  
    12     5    30 1   
    13     6    18 1   
    14     6    20 ar  
    15     7    12 ar  
    16     7    14 ar  
    17     7    31 1   
    18     8     9 ar  
    19     8    13 ar  
    20     8    32 1   
    21     9    14 ar  
    22     9    15 ar  
    23    10    33 1   
    24    10    34 1   
    25    10    35 1   
    26    10    47 1   
    27    11    26 1   
    28    11    39 1   
    29    11    40 1   
    30    11    41 1   
    31    12    13 ar  
    32    12    26 1   
    33    13    47 1   
    34    14    25 ar  
    35    15    24 ar  
    36    16    24 ar  
    37    16    25 ar  
    38    16    48 1   
    39    17    19 1   
    40    17    42 1   
    41    17    43 1   
    42    17    44 1   
    43    18    21 1   
    44    18    22 1   
    45    18    23 1   
    46    19    45 1   
    47    20    46 1   
    48    36    48 1   
    49    37    48 1   
    50    38    48 1   
@<TRIPOS>SUBSTRUCTURE
     1 S3Q         1 TEMP              0 ****  ****    0 ROOT
