@<TRIPOS>MOLECULE
S3R
   33    35     1     0     0
SMALL
No Charge or Current Charge


@<TRIPOS>ATOM
      1 C18        -44.8520   -29.2350     6.8720 ca         1 S3R       0.490900
      2 C16        -47.1240   -29.2490     6.7390 ca         1 S3R       0.290900
      3 C14        -47.0480   -29.1580     5.3150 ca         1 S3R       0.402000
      4 C12        -44.7680   -29.1380     5.4090 ca         1 S3R       0.571900
      5 C10        -43.3970   -29.3240     3.2180 c3         1 S3R       0.215500
      6 C02        -44.5440   -32.4530     1.6100 cc         1 S3R       0.403800
      7 C05        -43.7800   -30.7380     2.7770 cc         1 S3R       0.373800
      8 C07        -45.0090   -30.1610     0.6190 cx         1 S3R      -0.009700
      9 C08        -45.9790   -29.0280     0.8620 cx         1 S3R      -0.123400
     10 C09        -46.3990   -30.2080     0.0260 cx         1 S3R      -0.123400
     11 N03        -43.9130   -32.9270     2.6720 nd         1 S3R      -0.366000
     12 N04        -43.4300   -31.8600     3.3970 nd         1 S3R      -0.375000
     13 N06        -44.4900   -31.0800     1.6450 na         1 S3R      -0.346000
     14 N11        -43.5740   -29.0680     4.6800 nu         1 S3R      -0.921100
     15 N13        -45.8730   -29.0990     4.6330 nb         1 S3R      -0.715000
     16 N17        -46.0170   -29.2890     7.5390 nb         1 S3R      -0.680000
     17 N19        -43.8180   -29.3050     7.7660 nv         1 S3R      -1.032900
     18 Cl15       -48.5070   -29.1180     4.3320 cl         1 S3R      -0.181000
     19 H161       -48.0900   -29.2920     7.2390 h4         1 S3R       0.044100
     20 H101       -42.3470   -29.1640     2.9380 h1         1 S3R       0.071200
     21 H102       -43.9860   -28.5970     2.6450 h1         1 S3R       0.071200
     22 H012       -44.8460   -34.3280     0.5950 hc         1 S3R       0.059033
     23 H011       -46.2760   -33.2810     0.6450 hc         1 S3R       0.059033
     24 H013       -44.9340   -32.9060    -0.4580 hc         1 S3R       0.059033
     25 H071       -44.1850   -29.9690    -0.0710 h1         1 S3R       0.093700
     26 H082       -45.7920   -28.0840     0.3540 hc         1 S3R       0.090450
     27 H081       -46.4200   -28.9330     1.8510 hc         1 S3R       0.090450
     28 H092       -47.1230   -30.8940     0.4610 hc         1 S3R       0.090450
     29 H091       -46.4960   -30.0650    -1.0480 hc         1 S3R       0.090450
     30 H111       -42.7290   -29.0110     5.2490 hn         1 S3R       0.504000
     31 H191       -44.0880   -29.5310     8.7180 hn         1 S3R       0.460500
     32 H192       -42.9300   -29.6860     7.4560 hn         1 S3R       0.460500
     33 C01        -45.1860   -33.2870     0.5380 c3         1 S3R      -0.120400
@<TRIPOS>BOND
     1     1     4 ar  
     2     1    16 ar  
     3     1    17 1   
     4     2     3 ar  
     5     2    16 ar  
     6     2    19 1   
     7     3    15 ar  
     8     3    18 1   
     9     4    14 1   
    10     4    15 ar  
    11     5     7 1   
    12     5    14 1   
    13     5    20 1   
    14     5    21 1   
    15     6    11 2   
    16     6    13 1   
    17     6    33 1   
    18     7    12 2   
    19     7    13 1   
    20     8     9 1   
    21     8    10 1   
    22     8    13 1   
    23     8    25 1   
    24     9    10 1   
    25     9    26 1   
    26     9    27 1   
    27    10    28 1   
    28    10    29 1   
    29    11    12 1   
    30    14    30 1   
    31    17    31 1   
    32    17    32 1   
    33    22    33 1   
    34    23    33 1   
    35    24    33 1   
@<TRIPOS>SUBSTRUCTURE
     1 S3R         1 TEMP              0 ****  ****    0 ROOT
