@<TRIPOS>MOLECULE
S3R
   33    35     1     0     0
SMALL
abcg2


@<TRIPOS>ATOM
      1 C18        -44.8770   -29.2290     6.7770 ca         1 S3R       0.490900
      2 C16        -47.1700   -29.1980     6.5940 ca         1 S3R       0.290900
      3 C14        -47.0490   -29.2630     5.2300 ca         1 S3R       0.402000
      4 C12        -44.7790   -29.2450     5.3410 ca         1 S3R       0.571900
      5 C10        -43.4720   -29.3620     3.2760 c3         1 S3R       0.215500
      6 C02        -44.5490   -32.4160     1.6150 cc         1 S3R       0.403800
      7 C05        -43.8380   -30.7460     2.8230 cc         1 S3R       0.373800
      8 C07        -44.9680   -30.1360     0.6440 cx         1 S3R      -0.009700
      9 C08        -45.9150   -29.0310     1.0200 cx         1 S3R      -0.123400
     10 C09        -46.4060   -30.2010     0.2190 cx         1 S3R      -0.123400
     11 N03        -43.9840   -32.9100     2.6890 nd         1 S3R      -0.366000
     12 N04        -43.5330   -31.8480     3.4550 nd         1 S3R      -0.375000
     13 N06        -44.4960   -31.0440     1.6580 na         1 S3R      -0.346000
     14 N11        -43.5770   -29.1910     4.7090 nu         1 S3R      -0.921100
     15 N13        -45.8790   -29.2870     4.6050 nb         1 S3R      -0.715000
     16 N17        -46.0580   -29.1940     7.3570 nb         1 S3R      -0.680000
     17 N19        -43.7440   -29.1770     7.5600 nv         1 S3R      -1.032900
     18 CL15       -48.4840   -29.3180     4.2150 cl         1 S3R      -0.181000
     19 H161       -48.1300   -29.1630     7.0910 h4         1 S3R       0.044100
     20 H101       -42.4390   -29.1510     2.9970 h1         1 S3R       0.071200
     21 H102       -44.1000   -28.6340     2.7680 h1         1 S3R       0.071200
     22 H012       -44.9030   -34.2570     0.6600 hc         1 S3R       0.059033
     23 H011       -46.2240   -33.0930     0.4670 hc         1 S3R       0.059033
     24 H013       -44.7380   -32.8890    -0.4580 hc         1 S3R       0.059033
     25 H071       -44.2290   -29.9270    -0.1180 h1         1 S3R       0.093700
     26 H082       -45.7720   -28.0790     0.5280 hc         1 S3R       0.090450
     27 H081       -46.2250   -28.9800     2.0540 hc         1 S3R       0.090450
     28 H092       -47.0430   -30.9090     0.7300 hc         1 S3R       0.090450
     29 H091       -46.6120   -30.0730    -0.8350 hc         1 S3R       0.090450
     30 H111       -42.7330   -29.2770     5.2460 hn         1 S3R       0.504000
     31 H191       -43.9340   -29.3090     8.5440 hn         1 S3R       0.460500
     32 H192       -42.9500   -29.7240     7.2550 hn         1 S3R       0.460500
     33 C01        -45.1390   -33.2060     0.5060 c3         1 S3R      -0.120400
@<TRIPOS>BOND
     1     1     4 ar  
     2     1    16 ar  
     3     1    17 1   
     4     2     3 ar  
     5     2    16 ar  
     6     2    19 1   
     7     3    15 ar  
     8     3    18 1   
     9     4    14 1   
    10     4    15 ar  
    11     5     7 1   
    12     5    14 1   
    13     5    20 1   
    14     5    21 1   
    15     6    11 2   
    16     6    13 1   
    17     6    33 1   
    18     7    12 2   
    19     7    13 1   
    20     8     9 1   
    21     8    10 1   
    22     8    13 1   
    23     8    25 1   
    24     9    10 1   
    25     9    26 1   
    26     9    27 1   
    27    10    28 1   
    28    10    29 1   
    29    11    12 1   
    30    14    30 1   
    31    17    31 1   
    32    17    32 1   
    33    22    33 1   
    34    23    33 1   
    35    24    33 1   
@<TRIPOS>SUBSTRUCTURE
     1 S3R         1 TEMP              0 ****  ****    0 ROOT
