@<TRIPOS>MOLECULE
S3T
   47    49     1     0     0
SMALL
No Charge or Current Charge


@<TRIPOS>ATOM
      1 N1          -9.7020    -3.5280   -42.1950 nb         1 S3T      -0.224000
      2 N3         -10.8130    -3.0520   -44.2700 nb         1 S3T      -0.282000
      3 C4         -10.3520    -1.7900   -44.2240 ca         1 S3T       0.407900
      4 C5          -9.5380    -1.3340   -43.1580 ca         1 S3T      -0.180000
      5 C6          -9.0380    -0.0120   -43.0810 ca         1 S3T      -0.152000
      6 C7          -8.2310     0.3830   -41.9900 ca         1 S3T       0.105100
      7 C8          -7.9240    -0.5510   -40.9730 ca         1 S3T       0.155100
      8 C10         -9.2300    -2.2660   -42.1370 ca         1 S3T       0.076000
      9 C17        -13.1770    -1.1470   -45.5110 ca         1 S3T      -0.054300
     10 C21        -15.6630    -1.1170   -44.1760 ca         1 S3T      -0.174000
     11 C22        -15.2250    -2.2870   -44.8180 ca         1 S3T      -0.071000
     12 C24        -11.8240    -1.1790   -46.2330 c3         1 S3T       0.285800
     13 C12         -6.7640    -1.0140   -38.8340 c3         1 S3T       0.142900
     14 C14         -7.9800     2.6890   -42.8640 c3         1 S3T       0.144900
     15 C18        -13.6290     0.0210   -44.8570 ca         1 S3T      -0.170000
     16 C19        -14.8650     0.0350   -44.1950 ca         1 S3T       0.290000
     17 C2         -10.4700    -3.8600   -43.2520 ca         1 S3T       0.185300
     18 C23        -13.9870    -2.3010   -45.4820 ca         1 S3T      -0.136000
     19 C25        -11.7380    -0.1340   -47.3620 c3         1 S3T      -0.104100
     20 C9          -8.4270    -1.8670   -41.0560 ca         1 S3T      -0.189000
     21 N15        -10.7240    -0.9600   -45.2820 nu         1 S3T      -0.923100
     22 N20        -15.2930     1.1720   -43.5650 nv         1 S3T      -1.075000
     23 O11         -7.1300    -0.1380   -39.9140 os         1 S3T      -0.318100
     24 O13         -7.7230     1.6690   -41.8830 os         1 S3T      -0.318100
     25 H26         -9.2760     0.7000   -43.8630 ha         1 S3T       0.111000
     26 H42        -15.8430    -3.1820   -44.8010 ha         1 S3T       0.110000
     27 H44        -11.7030    -2.1670   -46.7030 h1         1 S3T       0.084700
     28 H28         -6.1350    -0.4810   -38.1100 h1         1 S3T       0.044367
     29 H29         -7.6550    -1.3770   -38.3060 h1         1 S3T       0.044367
     30 H30         -6.1970    -1.8770   -39.2050 h1         1 S3T       0.044367
     31 H31         -7.4830     3.6240   -42.5770 h1         1 S3T       0.040367
     32 H32         -7.5970     2.3900   -43.8480 h1         1 S3T       0.040367
     33 H33         -9.0560     2.8890   -42.9480 h1         1 S3T       0.040367
     34 H38        -13.0120     0.9150   -44.8610 ha         1 S3T       0.103000
     35 H43        -13.6550    -3.2140   -45.9720 ha         1 S3T       0.115000
     36 H47        -10.7870    -0.2260   -47.9000 hc         1 S3T       0.045367
     37 H45        -12.5500    -0.2880   -48.0810 hc         1 S3T       0.045367
     38 H46        -11.8150     0.8870   -46.9700 hc         1 S3T       0.045367
     39 H27         -8.2040    -2.5990   -40.2860 ha         1 S3T       0.141000
     40 H34        -10.3610    -0.0130   -45.2260 hn         1 S3T       0.488000
     41 H39        -16.1140     1.1390   -42.9650 hn         1 S3T       0.446500
     42 H40        -14.6560     1.9580   -43.4510 hn         1 S3T       0.446500
     43 C16        -10.9920    -5.2850   -43.3060 c3         1 S3T      -0.131400
     44 H41        -16.6220    -1.1110   -43.6650 ha         1 S3T       0.111000
     45 H35        -10.3600    -5.9060   -43.9510 hc         1 S3T       0.055367
     46 H36        -11.0110    -5.7470   -42.3110 hc         1 S3T       0.055367
     47 H37        -12.0130    -5.3190   -43.7030 hc         1 S3T       0.055367
@<TRIPOS>BOND
     1     1     8 ar  
     2     1    17 ar  
     3     2     3 ar  
     4     2    17 ar  
     5     3     4 ar  
     6     3    21 1   
     7     4     5 ar  
     8     4     8 ar  
     9     5     6 ar  
    10     5    25 1   
    11     6     7 ar  
    12     6    24 1   
    13     7    20 ar  
    14     7    23 1   
    15     8    20 ar  
    16     9    12 1   
    17     9    15 ar  
    18     9    18 ar  
    19    10    11 ar  
    20    10    16 ar  
    21    10    44 1   
    22    11    18 ar  
    23    11    26 1   
    24    12    19 1   
    25    12    21 1   
    26    12    27 1   
    27    13    23 1   
    28    13    28 1   
    29    13    29 1   
    30    13    30 1   
    31    14    24 1   
    32    14    31 1   
    33    14    32 1   
    34    14    33 1   
    35    15    16 ar  
    36    15    34 1   
    37    16    22 1   
    38    17    43 1   
    39    18    35 1   
    40    19    36 1   
    41    19    37 1   
    42    19    38 1   
    43    20    39 1   
    44    21    40 1   
    45    22    41 1   
    46    22    42 1   
    47    43    45 1   
    48    43    46 1   
    49    43    47 1   
@<TRIPOS>SUBSTRUCTURE
     1 S3T         1 TEMP              0 ****  ****    0 ROOT
