@<TRIPOS>MOLECULE
S3T
   47    49     1     0     0
SMALL
bcc


@<TRIPOS>ATOM
      1 N1          -9.8060    -3.3610   -42.0740 nb         1 S3T      -0.750000
      2 N3         -10.9390    -2.8600   -44.0870 nb         1 S3T      -0.808000
      3 C4         -10.4360    -1.6390   -44.1200 ca         1 S3T       0.736200
      4 C5          -9.5360    -1.1890   -43.1010 ca         1 S3T      -0.310600
      5 C6          -8.9310     0.0880   -43.0690 ca         1 S3T      -0.170000
      6 C7          -8.0960     0.4390   -42.0430 ca         1 S3T       0.105100
      7 C8          -7.8330    -0.4980   -40.9930 ca         1 S3T       0.155100
      8 C10         -9.2690    -2.1140   -42.0820 ca         1 S3T       0.469600
      9 C17        -13.1880    -1.2370   -45.5470 ca         1 S3T      -0.054300
     10 C21        -15.8030    -1.2380   -44.5810 ca         1 S3T      -0.192000
     11 C22        -15.3870    -2.2010   -45.4850 ca         1 S3T      -0.089000
     12 C24        -11.7870    -1.2070   -46.1240 c3         1 S3T       0.285800
     13 C12         -6.7350    -0.9050   -38.9420 c3         1 S3T       0.119700
     14 C14         -7.6820     2.5950   -42.9150 c3         1 S3T       0.121700
     15 C18        -13.6020    -0.2700   -44.6410 ca         1 S3T      -0.188000
     16 C19        -14.9090    -0.2530   -44.1430 ca         1 S3T       0.151600
     17 C2         -10.5970    -3.6660   -43.0700 ca         1 S3T       0.711300
     18 C23        -14.0860    -2.2110   -45.9700 ca         1 S3T      -0.154000
     19 C25        -11.7040    -0.2300   -47.2910 c3         1 S3T      -0.104100
     20 C9          -8.4080    -1.7420   -41.0260 ca         1 S3T      -0.272300
     21 N15        -10.7810    -0.8440   -45.1470 nu         1 S3T      -0.867900
     22 N20        -15.3240     0.7430   -43.2820 nv         1 S3T      -0.826200
     23 O11         -7.0100    -0.0540   -40.0390 os         1 S3T      -0.294900
     24 O13         -7.4740     1.6200   -41.9130 os         1 S3T      -0.294900
     25 H26         -9.1190     0.7990   -43.8610 ha         1 S3T       0.129000
     26 H42        -16.0880    -2.9620   -45.8060 ha         1 S3T       0.128000
     27 H44        -11.5520    -2.2080   -46.4930 h1         1 S3T       0.084700
     28 H28         -6.0770    -0.3490   -38.2790 h1         1 S3T       0.044367
     29 H29         -7.6450    -1.1710   -38.3990 h1         1 S3T       0.044367
     30 H30         -6.2300    -1.8210   -39.2570 h1         1 S3T       0.044367
     31 H31         -7.1010     3.4660   -42.6220 h1         1 S3T       0.040367
     32 H32         -7.3370     2.2530   -43.8940 h1         1 S3T       0.040367
     33 H33         -8.7350     2.8820   -42.9920 h1         1 S3T       0.040367
     34 H38        -12.9030     0.4880   -44.3000 ha         1 S3T       0.121000
     35 H43        -13.7680    -2.9780   -46.6670 ha         1 S3T       0.133000
     36 H47        -10.7110    -0.2450   -47.7420 hc         1 S3T       0.045367
     37 H45        -12.4310    -0.4970   -48.0570 hc         1 S3T       0.045367
     38 H46        -11.9210     0.7890   -46.9660 hc         1 S3T       0.045367
     39 H27         -8.2230    -2.4740   -40.2510 ha         1 S3T       0.159000
     40 H34        -10.5140     0.1260   -45.1150 hn         1 S3T       0.432800
     41 H39        -16.1160     0.5150   -42.7020 hn         1 S3T       0.391300
     42 H40        -14.5940     1.1960   -42.7540 hn         1 S3T       0.391300
     43 C16        -11.2100    -5.0340   -43.0760 c3         1 S3T      -0.131400
     44 H41        -16.8200    -1.2440   -44.2070 ha         1 S3T       0.129000
     45 H35        -11.6020    -5.2850   -44.0580 hc         1 S3T       0.055367
     46 H36        -10.4840    -5.7880   -42.7760 hc         1 S3T       0.055367
     47 H37        -12.0370    -5.0810   -42.3640 hc         1 S3T       0.055367
@<TRIPOS>BOND
     1     1     8 ar  
     2     1    17 ar  
     3     2     3 ar  
     4     2    17 ar  
     5     3     4 ar  
     6     3    21 1   
     7     4     5 ar  
     8     4     8 ar  
     9     5     6 ar  
    10     5    25 1   
    11     6     7 ar  
    12     6    24 1   
    13     7    20 ar  
    14     7    23 1   
    15     8    20 ar  
    16     9    12 1   
    17     9    15 ar  
    18     9    18 ar  
    19    10    11 ar  
    20    10    16 ar  
    21    10    44 1   
    22    11    18 ar  
    23    11    26 1   
    24    12    19 1   
    25    12    21 1   
    26    12    27 1   
    27    13    23 1   
    28    13    28 1   
    29    13    29 1   
    30    13    30 1   
    31    14    24 1   
    32    14    31 1   
    33    14    32 1   
    34    14    33 1   
    35    15    16 ar  
    36    15    34 1   
    37    16    22 1   
    38    17    43 1   
    39    18    35 1   
    40    19    36 1   
    41    19    37 1   
    42    19    38 1   
    43    20    39 1   
    44    21    40 1   
    45    22    41 1   
    46    22    42 1   
    47    43    45 1   
    48    43    46 1   
    49    43    47 1   
@<TRIPOS>SUBSTRUCTURE
     1 S3T         1 TEMP              0 ****  ****    0 ROOT
