@<TRIPOS>MOLECULE
S3U
   55    58     1     0     0
SMALL
No Charge or Current Charge


@<TRIPOS>ATOM
      1 C11        -20.8540   -23.7710     4.6600 ca         1 S3U      -0.086000
      2 C12        -21.3410   -23.4930     3.3760 ca         1 S3U      -0.131000
      3 C04        -21.3330   -18.1700     7.2280 cc         1 S3U      -0.277900
      4 C05        -21.5070   -18.9980     6.1430 cd         1 S3U      -0.065000
      5 C06        -21.0970   -20.3560     6.3380 cd         1 S3U      -0.063000
      6 C07        -20.6080   -20.5470     7.6120 cc         1 S3U      -0.228000
      7 C09        -21.1870   -21.4340     5.3170 ca         1 S3U       0.015000
      8 C10        -20.7800   -22.7530     5.6230 ca         1 S3U      -0.125000
      9 C13        -21.7650   -22.1960     3.0440 ca         1 S3U      -0.021000
     10 C15        -22.9730   -20.9390     1.1490 c          1 S3U       0.580100
     11 C17        -23.2650   -21.0940    -0.4000 c6         1 S3U       0.112000
     12 C18        -23.6060   -22.5800    -0.7930 c6         1 S3U      -0.076400
     13 C19        -23.7760   -22.7700    -2.3250 c6         1 S3U      -0.070900
     14 C20        -22.4800   -22.3770    -3.0690 c6         1 S3U      -0.075400
     15 C21        -22.0400   -20.9430    -2.6930 c6         1 S3U      -0.070900
     16 C22        -21.9290   -20.7720    -1.1530 c6         1 S3U      -0.076400
     17 C24        -25.5270   -20.0440    -0.3300 ca         1 S3U       0.119100
     18 C25        -26.5040   -21.0450    -0.4990 ca         1 S3U      -0.154500
     19 C26        -27.7850   -20.8830     0.0570 ca         1 S3U      -0.080500
     20 C27        -28.1020   -19.7110     0.7650 ca         1 S3U      -0.134000
     21 C28        -27.1430   -18.6940     0.9040 ca         1 S3U      -0.080500
     22 C29        -25.8630   -18.8580     0.3470 ca         1 S3U      -0.154500
     23 C30        -21.6760   -21.1730     4.0140 ca         1 S3U      -0.151000
     24 N01        -21.3990   -16.0890     8.4830 nv         1 S3U      -1.084200
     25 N03        -22.1830   -16.1180     6.3850 n2         1 S3U      -0.815100
     26 N14        -22.2400   -21.9770     1.7210 ns         1 S3U      -0.139000
     27 O16        -23.4300   -20.0160     1.8180 o          1 S3U      -0.585100
     28 O23        -24.2700   -20.1450    -0.8940 os         1 S3U      -0.377100
     29 S08        -20.6440   -19.0730     8.5680 ss         1 S3U       0.220000
     30 H111       -20.5320   -24.7800     4.9120 ha         1 S3U       0.116000
     31 H121       -21.3920   -24.2930     2.6400 ha         1 S3U       0.148000
     32 H051       -21.9290   -18.6260     5.2160 ha         1 S3U       0.154000
     33 H071       -20.2220   -21.4420     8.0790 h4         1 S3U       0.153000
     34 H101       -20.3990   -23.0050     6.6070 ha         1 S3U       0.115000
     35 H182       -24.4980   -22.9260    -0.2560 hc         1 S3U       0.061950
     36 H181       -22.8050   -23.2580    -0.4680 hc         1 S3U       0.061950
     37 H192       -24.6130   -22.1640    -2.6980 hc         1 S3U       0.047700
     38 H191       -24.0280   -23.8170    -2.5450 hc         1 S3U       0.047700
     39 H202       -21.6790   -23.0870    -2.8170 hc         1 S3U       0.041700
     40 H201       -22.6320   -22.4510    -4.1540 hc         1 S3U       0.041700
     41 H212       -21.0730   -20.7180    -3.1630 hc         1 S3U       0.047700
     42 H211       -22.7570   -20.2170    -3.1020 hc         1 S3U       0.047700
     43 H222       -21.1160   -21.4120    -0.7810 hc         1 S3U       0.061950
     44 H221       -21.6230   -19.7410    -0.9270 hc         1 S3U       0.061950
     45 H251       -26.2940   -21.9370    -1.0790 ha         1 S3U       0.124500
     46 H261       -28.5360   -21.6600    -0.0710 ha         1 S3U       0.116000
     47 H271       -29.0940   -19.5860     1.1930 ha         1 S3U       0.117000
     48 H281       -27.3910   -17.7800     1.4400 ha         1 S3U       0.116000
     49 H291       -25.1220   -18.0690     0.4500 ha         1 S3U       0.124500
     50 H301       -21.9690   -20.1670     3.7490 ha         1 S3U       0.116000
     51 H012       -20.7880   -16.5660     9.1340 hn         1 S3U       0.465000
     52 H031       -22.5460   -15.2370     6.7610 hn         1 S3U       0.370400
     53 H141       -21.9780   -22.7060     1.0720 hn         1 S3U       0.170000
     54 H011       -21.2400   -15.0930     8.3920 hn         1 S3U       0.465000
     55 C02        -21.6550   -16.7560     7.3430 ce         1 S3U       0.685800
@<TRIPOS>BOND
     1     1     2 ar  
     2     1     8 ar  
     3     1    30 1   
     4     2     9 ar  
     5     2    31 1   
     6     3     4 2   
     7     3    29 1   
     8     3    55 1   
     9     4     5 1   
    10     4    32 1   
    11     5     6 2   
    12     5     7 1   
    13     6    29 1   
    14     6    33 1   
    15     7     8 ar  
    16     7    23 ar  
    17     8    34 1   
    18     9    23 ar  
    19     9    26 1   
    20    10    11 1   
    21    10    26 1   
    22    10    27 2   
    23    11    12 1   
    24    11    16 1   
    25    11    28 1   
    26    12    13 1   
    27    12    35 1   
    28    12    36 1   
    29    13    14 1   
    30    13    37 1   
    31    13    38 1   
    32    14    15 1   
    33    14    39 1   
    34    14    40 1   
    35    15    16 1   
    36    15    41 1   
    37    15    42 1   
    38    16    43 1   
    39    16    44 1   
    40    17    18 ar  
    41    17    22 ar  
    42    17    28 1   
    43    18    19 ar  
    44    18    45 1   
    45    19    20 ar  
    46    19    46 1   
    47    20    21 ar  
    48    20    47 1   
    49    21    22 ar  
    50    21    48 1   
    51    22    49 1   
    52    23    50 1   
    53    24    51 1   
    54    24    54 1   
    55    24    55 1   
    56    25    52 1   
    57    25    55 2   
    58    26    53 1   
@<TRIPOS>SUBSTRUCTURE
     1 S3U         1 TEMP              0 ****  ****    0 ROOT
