@<TRIPOS>MOLECULE
S3U
   55    58     1     0     0
SMALL
abcg2


@<TRIPOS>ATOM
      1 C11        -21.6630   -23.7420     4.9670 ca         1 S3U      -0.086000
      2 C12        -21.9910   -23.5210     3.6330 ca         1 S3U      -0.131000
      3 C04        -21.6140   -18.0480     7.1220 cc         1 S3U      -0.277900
      4 C05        -21.9620   -18.9420     6.1450 cd         1 S3U      -0.065000
      5 C06        -21.3750   -20.2310     6.3130 cd         1 S3U      -0.063000
      6 C07        -20.5830   -20.2760     7.4380 cc         1 S3U      -0.228000
      7 C09        -21.5880   -21.3680     5.4000 ca         1 S3U       0.015000
      8 C10        -21.4650   -22.6900     5.8480 ca         1 S3U      -0.125000
      9 C13        -22.1210   -22.2070     3.1790 ca         1 S3U      -0.021000
     10 C15        -22.7780   -22.6680     0.8140 c          1 S3U       0.580100
     11 C17        -23.0250   -21.8990    -0.5010 c6         1 S3U       0.112000
     12 C18        -24.0130   -22.6270    -1.4160 c6         1 S3U      -0.076400
     13 C19        -24.1370   -21.9400    -2.7760 c6         1 S3U      -0.070900
     14 C20        -22.7790   -21.8200    -3.4670 c6         1 S3U      -0.075400
     15 C21        -21.7740   -21.0940    -2.5730 c6         1 S3U      -0.070900
     16 C22        -21.6600   -21.7590    -1.2010 c6         1 S3U      -0.076400
     17 C24        -24.6880   -20.2190     0.2120 ca         1 S3U       0.119100
     18 C25        -25.5030   -21.0610     0.9670 ca         1 S3U      -0.154500
     19 C26        -26.7430   -20.6020     1.4040 ca         1 S3U      -0.080500
     20 C27        -27.1750   -19.3150     1.1070 ca         1 S3U      -0.134000
     21 C28        -26.3510   -18.4770     0.3580 ca         1 S3U      -0.080500
     22 C29        -25.1160   -18.9260    -0.0900 ca         1 S3U      -0.154500
     23 C30        -21.9180   -21.1450     4.0640 ca         1 S3U      -0.151000
     24 N01        -21.2630   -15.8360     8.0040 nv         1 S3U      -1.084200
     25 N03        -23.1850   -16.3090     6.7070 n2         1 S3U      -0.815100
     26 N14        -22.4410   -21.8680     1.8550 ns         1 S3U      -0.139000
     27 O16        -22.8290   -23.8910     0.8550 o          1 S3U      -0.585100
     28 O23        -23.4290   -20.5360    -0.2340 os         1 S3U      -0.377100
     29 S08        -20.5500   -18.7850     8.2750 ss         1 S3U       0.220000
     30 H111       -21.5690   -24.7610     5.3230 ha         1 S3U       0.116000
     31 H121       -22.1460   -24.3450     2.9580 ha         1 S3U       0.148000
     32 H051       -22.6280   -18.6790     5.3380 ha         1 S3U       0.154000
     33 H071       -20.0040   -21.1070     7.8080 h4         1 S3U       0.153000
     34 H101       -21.2320   -22.8900     6.8850 ha         1 S3U       0.115000
     35 H182       -24.9880   -22.7110    -0.9380 hc         1 S3U       0.061950
     36 H181       -23.6390   -23.6420    -1.5460 hc         1 S3U       0.061950
     37 H192       -24.5720   -20.9450    -2.6470 hc         1 S3U       0.047700
     38 H191       -24.8320   -22.5090    -3.3980 hc         1 S3U       0.047700
     39 H202       -22.4020   -22.8240    -3.6930 hc         1 S3U       0.041700
     40 H201       -22.8830   -21.2960    -4.4190 hc         1 S3U       0.041700
     41 H212       -20.7870   -21.0780    -3.0410 hc         1 S3U       0.047700
     42 H211       -22.0830   -20.0530    -2.4460 hc         1 S3U       0.047700
     43 H222       -21.2450   -22.7640    -1.3070 hc         1 S3U       0.061950
     44 H221       -20.9890   -21.1930    -0.5510 hc         1 S3U       0.061950
     45 H251       -25.1950   -22.0620     1.2250 ha         1 S3U       0.124500
     46 H261       -27.3700   -21.2640     1.9880 ha         1 S3U       0.116000
     47 H271       -28.1390   -18.9680     1.4530 ha         1 S3U       0.117000
     48 H281       -26.6710   -17.4720     0.1160 ha         1 S3U       0.116000
     49 H291       -24.4690   -18.2870    -0.6770 ha         1 S3U       0.124500
     50 H301       -22.0050   -20.1320     3.6910 ha         1 S3U       0.116000
     51 H012       -20.2760   -16.0380     8.0440 hn         1 S3U       0.465000
     52 H031       -23.3540   -15.3090     6.8250 hn         1 S3U       0.370400
     53 H141       -22.4660   -20.8780     1.6510 hn         1 S3U       0.170000
     54 H011       -21.4880   -14.8520     8.0190 hn         1 S3U       0.465000
     55 C02        -22.0700   -16.6500     7.2490 ce         1 S3U       0.685800
@<TRIPOS>BOND
     1     1     2 ar  
     2     1     8 ar  
     3     1    30 1   
     4     2     9 ar  
     5     2    31 1   
     6     3     4 2   
     7     3    29 1   
     8     3    55 1   
     9     4     5 1   
    10     4    32 1   
    11     5     6 2   
    12     5     7 1   
    13     6    29 1   
    14     6    33 1   
    15     7     8 ar  
    16     7    23 ar  
    17     8    34 1   
    18     9    23 ar  
    19     9    26 1   
    20    10    11 1   
    21    10    26 1   
    22    10    27 2   
    23    11    12 1   
    24    11    16 1   
    25    11    28 1   
    26    12    13 1   
    27    12    35 1   
    28    12    36 1   
    29    13    14 1   
    30    13    37 1   
    31    13    38 1   
    32    14    15 1   
    33    14    39 1   
    34    14    40 1   
    35    15    16 1   
    36    15    41 1   
    37    15    42 1   
    38    16    43 1   
    39    16    44 1   
    40    17    18 ar  
    41    17    22 ar  
    42    17    28 1   
    43    18    19 ar  
    44    18    45 1   
    45    19    20 ar  
    46    19    46 1   
    47    20    21 ar  
    48    20    47 1   
    49    21    22 ar  
    50    21    48 1   
    51    22    49 1   
    52    23    50 1   
    53    24    51 1   
    54    24    54 1   
    55    24    55 1   
    56    25    52 1   
    57    25    55 2   
    58    26    53 1   
@<TRIPOS>SUBSTRUCTURE
     1 S3U         1 TEMP              0 ****  ****    0 ROOT
