@<TRIPOS>MOLECULE
S3V
   13    13     1     0     0
SMALL
No Charge or Current Charge


@<TRIPOS>ATOM
      1 C4         -12.5040    78.3710   122.1030 ca         1 S3V      -0.108600
      2 C5         -12.2890    77.6290   123.4120 c          1 S3V       0.715600
      3 N          -12.9070    79.7620   119.6480 nb         1 S3V      -0.710000
      4 C          -12.3740    77.7240   120.8520 ca         1 S3V      -0.137000
      5 O          -11.9970    76.4420   123.3690 o          1 S3V      -0.714000
      6 C1         -12.5810    78.4500   119.6650 ca         1 S3V       0.286400
      7 C2         -13.0340    80.3900   120.8390 ca         1 S3V       0.286400
      8 C3         -12.8440    79.7440   122.0730 ca         1 S3V      -0.137000
      9 O1         -12.4170    78.2460   124.4610 o          1 S3V      -0.714000
     10 H1         -12.1150    76.6710   120.7900 ha         1 S3V       0.130000
     11 H2         -12.4840    77.9640   118.6950 h4         1 S3V      -0.013900
     12 H3         -13.2960    81.4460   120.8020 h4         1 S3V      -0.013900
     13 H4         -12.9630    80.3110   122.9920 ha         1 S3V       0.130000
@<TRIPOS>BOND
     1     1     2 1   
     2     1     4 ar  
     3     1     8 ar  
     4     2     5 1   
     5     2     9 1   
     6     3     6 ar  
     7     3     7 ar  
     8     4     6 ar  
     9     4    10 1   
    10     6    11 1   
    11     7     8 ar  
    12     7    12 1   
    13     8    13 1   
@<TRIPOS>SUBSTRUCTURE
     1 S3V         1 TEMP              0 ****  ****    0 ROOT
