@<TRIPOS>MOLECULE
S3V
   13    13     1     0     0
SMALL
abcg2


@<TRIPOS>ATOM
      1 C4         -12.5050    78.3810   122.0870 ca         1 S3V      -0.108600
      2 C5         -12.2900    77.6320   123.4050 c          1 S3V       0.715600
      3 N          -12.9040    79.7490   119.6700 nb         1 S3V      -0.710000
      4 C          -12.3800    77.7400   120.8600 ca         1 S3V      -0.137000
      5 O          -11.9510    76.4390   123.3070 o          1 S3V      -0.714000
      6 C1         -12.5890    78.4590   119.6930 ca         1 S3V       0.286400
      7 C2         -13.0210    80.3640   120.8430 ca         1 S3V       0.286400
      8 C3         -12.8370    79.7310   122.0620 ca         1 S3V      -0.137000
      9 O1         -12.4780    78.2900   124.4440 o          1 S3V      -0.714000
     10 H1         -12.1230    76.6910   120.8080 ha         1 S3V       0.130000
     11 H2         -12.4980    77.9670   118.7300 h4         1 S3V      -0.013900
     12 H3         -13.2770    81.4180   120.8110 h4         1 S3V      -0.013900
     13 H4         -12.9510    80.2890   122.9820 ha         1 S3V       0.130000
@<TRIPOS>BOND
     1     1     2 1   
     2     1     4 ar  
     3     1     8 ar  
     4     2     5 1   
     5     2     9 1   
     6     3     6 ar  
     7     3     7 ar  
     8     4     6 ar  
     9     4    10 1   
    10     6    11 1   
    11     7     8 ar  
    12     7    12 1   
    13     8    13 1   
@<TRIPOS>SUBSTRUCTURE
     1 S3V         1 TEMP              0 ****  ****    0 ROOT
