@<TRIPOS>MOLECULE
S3W
   70    72     1     0     0
SMALL
bcc


@<TRIPOS>ATOM
      1 N5          64.5710    30.1590     2.0380 nc         1 S3W      -0.341000
      2 N4          64.4920    31.4240     1.8030 nd         1 S3W      -0.204800
      3 N3          65.6880    31.9480     2.0000 na         1 S3W       0.106400
      4 N1          65.4410    27.7270     8.8900 ns         1 S3W      -0.569900
      5 N2          67.1410    28.3880     3.8630 ns         1 S3W      -0.577900
      6 C17         65.7820    35.5760     3.1250 c6         1 S3W       0.127100
      7 C16         65.7870    36.1890     4.5210 c6         1 S3W       0.075100
      8 C18         65.7520    34.0560     3.2510 c6         1 S3W       0.126100
      9 C14         66.8830    34.0950     5.3510 c6         1 S3W       0.345900
     10 C15         66.9510    35.6200     5.3290 c6         1 S3W       0.107100
     11 C12         65.8340    29.8490     2.3950 cc         1 S3W       0.243600
     12 C13         66.5700    31.0060     2.3770 cd         1 S3W      -0.226600
     13 C19         65.8800    33.3780     1.8970 c3         1 S3W       0.058300
     14 C4          61.9600    26.0990    10.5320 c6         1 S3W       0.119100
     15 C3          63.2480    25.8940    11.3240 c6         1 S3W       0.118100
     16 C5          62.2820    26.0380     9.0440 c6         1 S3W       0.157100
     17 C1          64.4970    26.7670     9.3550 c6         1 S3W       0.286500
     18 C2          64.3100    26.8870    10.8710 c6         1 S3W       0.065100
     19 C7          66.3220    27.5000     7.8840 c          1 S3W       0.692100
     20 C8          67.2290    28.6720     7.5770 c3         1 S3W      -0.143400
     21 C9          67.7940    28.6230     6.1740 c3         1 S3W      -0.148400
     22 C10         66.7160    28.6470     5.1130 c          1 S3W       0.667100
     23 O18         66.8380    33.6060     4.0360 os         1 S3W      -0.443600
     24 O14         65.7890    33.7060     6.1060 os         1 S3W      -0.414600
     25 O15         66.9660    36.0890     6.6530 oh         1 S3W      -0.574800
     26 O16         65.9000    37.5880     4.3700 oh         1 S3W      -0.611800
     27 O17         64.6570    35.9670     2.3810 oh         1 S3W      -0.589800
     28 O5          63.2720    26.9830     8.6930 os         1 S3W      -0.391600
     29 O2          65.4960    26.5790    11.5620 oh         1 S3W      -0.599800
     30 O3          62.9430    26.0260    12.6890 oh         1 S3W      -0.605800
     31 O4          61.3590    27.3370    10.8210 oh         1 S3W      -0.588800
     32 O10         65.5470    28.9010     5.3660 o          1 S3W      -0.582100
     33 O7          66.4190    26.4300     7.3120 o          1 S3W      -0.580100
     34 HN1         65.3640    28.6670     9.2490 hn         1 S3W       0.309500
     35 HN2         68.1180    28.2020     3.7030 hn         1 S3W       0.310500
     36 HC17        66.7170    35.8650     2.6160 h1         1 S3W       0.047700
     37 HC16        64.8410    35.9260     5.0140 h1         1 S3W       0.077700
     38 HC18        64.7920    33.7610     3.6990 h1         1 S3W       0.087700
     39 HC14        67.8110    33.6790     5.7690 h2         1 S3W       0.075700
     40 HC15        67.8850    35.8810     4.8110 h1         1 S3W       0.051700
     41 HC13        67.6030    31.2180     2.5900 h4         1 S3W       0.184000
     42 H19A        66.8630    33.5710     1.4660 h1         1 S3W       0.086700
     43 H19B        65.1270    33.7590     1.2120 h1         1 S3W       0.086700
     44 HC4         61.2790    25.2650    10.7580 h1         1 S3W       0.051700
     45 HC3         63.6160    24.8800    11.0980 h1         1 S3W       0.053700
     46 HC5         62.6490    25.0180     8.8410 h1         1 S3W       0.053700
     47 HC1         64.8810    25.7640     9.1250 h2         1 S3W       0.081700
     48 HC2         63.9640    27.9050    11.1010 h1         1 S3W       0.059700
     49 HC8B        68.0560    28.6430     8.2930 hc         1 S3W       0.061200
     50 HC8A        66.7100    29.6150     7.7550 hc         1 S3W       0.061200
     51 HC9B        68.4290    27.7450     6.0370 hc         1 S3W       0.063700
     52 HC9A        68.4440    29.4890     6.0190 hc         1 S3W       0.063700
     53 HO15        67.3410    36.9740     6.6560 ho         1 S3W       0.409000
     54 HO16        65.4720    38.0190     5.1150 ho         1 S3W       0.418000
     55 HO17        64.6440    36.9290     2.3470 ho         1 S3W       0.426000
     56 HO2         66.0970    27.3290    11.5020 ho         1 S3W       0.414000
     57 HO3         63.7660    26.0300    13.1890 ho         1 S3W       0.429000
     58 HO4         61.2510    27.4000    11.7760 ho         1 S3W       0.420000
     59 HO6         60.6280    26.1920     6.2970 ho         1 S3W       0.407000
     60 C11         66.2620    28.4550     2.7210 c3         1 S3W       0.092700
     61 C20         65.6780    32.3100     6.2920 c3         1 S3W       0.120700
     62 C6          61.0610    26.2810     8.1810 c3         1 S3W       0.151400
     63 O6          61.3870    25.9770     6.8460 oh         1 S3W      -0.585800
     64 H20B        64.9440    32.1440     7.0790 h1         1 S3W       0.040700
     65 H20C        65.3400    31.7940     5.3900 h1         1 S3W       0.040700
     66 H20A        66.6290    31.8650     6.6060 h1         1 S3W       0.040700
     67 H11A        65.3740    27.8410     2.8820 h1         1 S3W       0.070200
     68 H11B        66.7970    28.0160     1.8790 h1         1 S3W       0.070200
     69 HC6B        60.7300    27.3200     8.2930 h1         1 S3W       0.035200
     70 HC6A        60.2500    25.6420     8.5570 h1         1 S3W       0.035200
@<TRIPOS>BOND
     1     1     2 2   
     2     1    11 1   
     3     2     3 1   
     4     3    12 1   
     5     3    13 1   
     6     4    17 1   
     7     4    19 1   
     8     4    34 1   
     9     5    22 1   
    10     5    35 1   
    11     5    60 1   
    12     6     7 1   
    13     6     8 1   
    14     6    27 1   
    15     6    36 1   
    16     7    10 1   
    17     7    26 1   
    18     7    37 1   
    19     8    13 1   
    20     8    23 1   
    21     8    38 1   
    22     9    10 1   
    23     9    23 1   
    24     9    24 1   
    25     9    39 1   
    26    10    25 1   
    27    10    40 1   
    28    11    12 2   
    29    11    60 1   
    30    12    41 1   
    31    13    42 1   
    32    13    43 1   
    33    14    15 1   
    34    14    16 1   
    35    14    31 1   
    36    14    44 1   
    37    15    18 1   
    38    15    30 1   
    39    15    45 1   
    40    16    28 1   
    41    16    46 1   
    42    16    62 1   
    43    17    18 1   
    44    17    28 1   
    45    17    47 1   
    46    18    29 1   
    47    18    48 1   
    48    19    20 1   
    49    19    33 2   
    50    20    21 1   
    51    20    49 1   
    52    20    50 1   
    53    21    22 1   
    54    21    51 1   
    55    21    52 1   
    56    22    32 2   
    57    24    61 1   
    58    25    53 1   
    59    26    54 1   
    60    27    55 1   
    61    29    56 1   
    62    30    57 1   
    63    31    58 1   
    64    59    63 1   
    65    60    67 1   
    66    60    68 1   
    67    61    64 1   
    68    61    65 1   
    69    61    66 1   
    70    62    63 1   
    71    62    69 1   
    72    62    70 1   
@<TRIPOS>SUBSTRUCTURE
     1 S3W         1 TEMP              0 ****  ****    0 ROOT
