@<TRIPOS>MOLECULE
S3W
   70    72     1     0     0
SMALL
No Charge or Current Charge


@<TRIPOS>ATOM
      1 N5          62.9350    30.8440     4.2400 nc         1 S3W      -0.341000
      2 N4          63.0280    31.8660     3.4250 nd         1 S3W      -0.204800
      3 N3          64.3570    32.0220     3.1190 na         1 S3W       0.127800
      4 N1          65.5300    27.4710     9.2940 ns         1 S3W      -0.502900
      5 N2          65.7050    29.2520     6.1090 ns         1 S3W      -0.510900
      6 C17         65.8910    35.4720     2.1000 c6         1 S3W       0.150300
      7 C16         66.6210    36.5480     2.9530 c6         1 S3W       0.098300
      8 C18         65.5230    34.2680     3.0170 c6         1 S3W       0.149300
      9 C14         67.4600    34.6500     4.4620 c6         1 S3W       0.392300
     10 C15         67.8690    35.9340     3.6550 c6         1 S3W       0.130300
     11 C12         64.1900    30.3520     4.4610 cc         1 S3W       0.178300
     12 C13         65.1100    31.0650     3.7580 cd         1 S3W      -0.194000
     13 C19         64.8330    33.1090     2.2510 c3         1 S3W       0.087600
     14 C4          62.3840    24.5810     9.2720 c6         1 S3W       0.142300
     15 C3          63.6540    24.2030    10.0950 c6         1 S3W       0.141300
     16 C5          62.8310    25.3880     8.0070 c6         1 S3W       0.180300
     17 C1          64.8470    26.2070     9.0610 c6         1 S3W       0.309700
     18 C2          64.5280    25.4590    10.4000 c6         1 S3W       0.088300
     19 C7          66.8320    27.7380     8.9580 c          1 S3W       0.625100
     20 C8          67.2710    29.1930     9.1630 c3         1 S3W      -0.143400
     21 C9          67.3290    29.9590     7.8110 c3         1 S3W      -0.148400
     22 C10         65.9360    30.0810     7.1820 c          1 S3W       0.600100
     23 O18         66.7300    33.7310     3.6190 os         1 S3W      -0.490000
     24 O14         66.6580    34.9960     5.6090 os         1 S3W      -0.461000
     25 O15         68.4950    36.9310     4.4990 oh         1 S3W      -0.697000
     26 O16         66.9990    37.6720     2.1330 oh         1 S3W      -0.674000
     27 O17         64.7330    36.0590     1.4850 oh         1 S3W      -0.712000
     28 O5          63.6230    26.5450     8.3870 os         1 S3W      -0.438000
     29 O2          65.7220    25.0640    11.1180 oh         1 S3W      -0.722000
     30 O3          63.2850    23.5620    11.3290 oh         1 S3W      -0.668000
     31 O4          61.4800    25.3220    10.1180 oh         1 S3W      -0.711000
     32 O10         65.0950    30.8610     7.6010 o          1 S3W      -0.582100
     33 O7          67.5850    26.8780     8.5310 o          1 S3W      -0.580100
     34 HN1         64.9700    28.2500     9.6150 hn         1 S3W       0.309500
     35 HN2         66.4620    28.6400     5.8270 hn         1 S3W       0.310500
     36 HC17        66.5840    35.1140     1.3230 h1         1 S3W       0.047700
     37 HC16        65.9250    36.8810     3.7400 h1         1 S3W       0.077700
     38 HC18        64.8390    34.6090     3.8090 h1         1 S3W       0.087700
     39 HC14        68.3810    34.1570     4.8100 h2         1 S3W       0.075700
     40 HC15        68.5780    35.6180     2.8750 h1         1 S3W       0.051700
     41 HC13        66.1870    30.9850     3.6840 h4         1 S3W       0.166000
     42 H19A        65.5370    32.6930     1.5210 h1         1 S3W       0.086700
     43 H19B        63.9750    33.5100     1.6980 h1         1 S3W       0.086700
     44 HC4         61.9020    23.6510     8.9360 h1         1 S3W       0.051700
     45 HC3         64.2560    23.5110     9.4860 h1         1 S3W       0.053700
     46 HC5         63.4510    24.7350     7.3750 h1         1 S3W       0.053700
     47 HC1         65.4620    25.5640     8.4120 h2         1 S3W       0.081700
     48 HC2         63.9350    26.1460    11.0240 h1         1 S3W       0.059700
     49 HC8B        68.2740    29.1980     9.6040 hc         1 S3W       0.061200
     50 HC8A        66.5690    29.7130     9.8270 hc         1 S3W       0.061200
     51 HC9B        68.0090    29.4280     7.1340 hc         1 S3W       0.063700
     52 HC9A        67.7140    30.9670     8.0050 hc         1 S3W       0.063700
     53 HO15        68.0130    36.9030     5.3610 ho         1 S3W       0.508000
     54 HO16        67.7180    38.1270     2.6310 ho         1 S3W       0.457000
     55 HO17        65.0270    36.9680     1.2290 ho         1 S3W       0.525000
     56 HO2         66.2640    25.8780    11.2510 ho         1 S3W       0.513000
     57 HO3         64.1060    23.5870    11.8750 ho         1 S3W       0.468000
     58 HO4         61.5760    24.8940    11.0040 ho         1 S3W       0.519000
     59 HO6         61.1920    26.8460     5.4850 ho         1 S3W       0.506000
     60 C11         64.4300    29.1780     5.3790 c3         1 S3W       0.092700
     61 C20         66.3260    33.9160     6.5000 c3         1 S3W       0.143900
     62 C6          61.6210    25.8660     7.1370 c3         1 S3W       0.174600
     63 O6          62.0190    26.5540     5.9330 oh         1 S3W      -0.708000
     64 H20B        65.7440    34.2900     7.3510 h1         1 S3W       0.040700
     65 H20C        65.7260    33.1540     5.9870 h1         1 S3W       0.040700
     66 H20A        67.2340    33.4390     6.8910 h1         1 S3W       0.040700
     67 H11A        63.6100    29.1100     6.1060 h1         1 S3W       0.070200
     68 H11B        64.4200    28.2560     4.7840 h1         1 S3W       0.070200
     69 HC6B        60.9910    26.5220     7.7520 h1         1 S3W       0.035200
     70 HC6A        61.0190    24.9830     6.8810 h1         1 S3W       0.035200
@<TRIPOS>BOND
     1     1     2 2   
     2     1    11 1   
     3     2     3 1   
     4     3    12 1   
     5     3    13 1   
     6     4    17 1   
     7     4    19 1   
     8     4    34 1   
     9     5    22 1   
    10     5    35 1   
    11     5    60 1   
    12     6     7 1   
    13     6     8 1   
    14     6    27 1   
    15     6    36 1   
    16     7    10 1   
    17     7    26 1   
    18     7    37 1   
    19     8    13 1   
    20     8    23 1   
    21     8    38 1   
    22     9    10 1   
    23     9    23 1   
    24     9    24 1   
    25     9    39 1   
    26    10    25 1   
    27    10    40 1   
    28    11    12 2   
    29    11    60 1   
    30    12    41 1   
    31    13    42 1   
    32    13    43 1   
    33    14    15 1   
    34    14    16 1   
    35    14    31 1   
    36    14    44 1   
    37    15    18 1   
    38    15    30 1   
    39    15    45 1   
    40    16    28 1   
    41    16    46 1   
    42    16    62 1   
    43    17    18 1   
    44    17    28 1   
    45    17    47 1   
    46    18    29 1   
    47    18    48 1   
    48    19    20 1   
    49    19    33 2   
    50    20    21 1   
    51    20    49 1   
    52    20    50 1   
    53    21    22 1   
    54    21    51 1   
    55    21    52 1   
    56    22    32 2   
    57    24    61 1   
    58    25    53 1   
    59    26    54 1   
    60    27    55 1   
    61    29    56 1   
    62    30    57 1   
    63    31    58 1   
    64    59    63 1   
    65    60    67 1   
    66    60    68 1   
    67    61    64 1   
    68    61    65 1   
    69    61    66 1   
    70    62    63 1   
    71    62    69 1   
    72    62    70 1   
@<TRIPOS>SUBSTRUCTURE
     1 S3W         1 TEMP              0 ****  ****    0 ROOT
