@<TRIPOS>MOLECULE
S3X
   65    69     1     0     0
SMALL
No Charge or Current Charge


@<TRIPOS>ATOM
      1 N1         -20.6720     8.9560    29.7420 ns         1 S3X      -0.495900
      2 N3         -20.3130     5.7260    27.4440 ns         1 S3X      -0.167000
      3 C4         -16.1960     9.4940    28.3710 ca         1 S3X      -0.048000
      4 C5         -17.8660     7.9370    30.0050 ca         1 S3X      -0.108000
      5 C6         -16.6550     7.4040    29.5350 ca         1 S3X      -0.048000
      6 C7         -15.8050     8.1780    28.7130 ca         1 S3X      -0.182200
      7 C8         -22.0040     9.2810    29.6840 c          1 S3X       0.591100
      8 C10        -22.9600     5.7010    28.5150 c6         1 S3X       0.194800
      9 C13        -19.1120     6.1520    26.8040 ca         1 S3X      -0.091000
     10 C15        -16.7380     6.9260    25.6120 ca         1 S3X       0.360900
     11 C17        -17.5760     9.2040    25.3240 ca         1 S3X      -0.074000
     12 C20        -20.0080     8.4450    26.5160 ca         1 S3X      -0.119000
     13 C21        -18.9750     7.4930    26.3730 ca         1 S3X      -0.029000
     14 C22        -22.2700     6.2940    30.7820 c6         1 S3X       0.223100
     15 C24        -21.3870     4.4440    32.2780 ca         1 S3X      -0.100000
     16 C26        -21.7500     3.9410    29.9160 ca         1 S3X      -0.053300
     17 C28        -20.9420     2.2090    31.4350 ca         1 S3X       0.122000
     18 O3         -22.4370    10.3870    29.9860 o          1 S3X      -0.610100
     19 C1         -19.5790     9.8230    30.1610 c3         1 S3X       0.160000
     20 C2         -18.2550     9.2480    29.6630 ca         1 S3X      -0.049300
     21 O1         -13.8880     8.2590    27.3560 o          1 S3X      -0.406000
     22 O          -14.1370     6.5220    28.6530 o          1 S3X      -0.406000
     23 C3         -17.4120    10.0190    28.8420 ca         1 S3X      -0.108000
     24 C          -19.5780    10.0220    31.6890 c3         1 S3X      -0.105100
     25 C9         -22.8890     8.1040    29.1920 c3         1 S3X       0.095800
     26 N2         -22.3010     6.7280    29.3570 n3         1 S3X      -0.766600
     27 C23        -21.7790     4.8600    30.9900 ca         1 S3X      -0.063300
     28 C27        -21.3320     2.6140    30.1500 ca         1 S3X      -0.089000
     29 C25        -20.9660     3.1220    32.5000 ca         1 S3X      -0.091000
     30 C11        -22.1420     4.3830    28.4960 c6         1 S3X      -0.099400
     31 C12        -20.8450     4.4610    27.6570 c          1 S3X       0.616100
     32 O2         -20.3450     3.4450    27.1840 o          1 S3X      -0.568100
     33 C19        -19.8180     9.7680    26.0820 ca         1 S3X      -0.084000
     34 C18        -18.6040    10.1480    25.4880 ca         1 S3X      -0.105000
     35 C16        -17.7610     7.8800    25.7670 ca         1 S3X      -0.098000
     36 N4         -16.8540     5.6450    26.0260 nb         1 S3X      -0.652000
     37 C14        -18.0160     5.2750    26.6110 ca         1 S3X       0.334900
     38 H1         -20.4670     7.9960    29.4900 hn         1 S3X       0.354500
     39 H2         -20.8590     6.4730    27.8590 hn         1 S3X       0.155000
     40 H3         -15.5650    10.1160    27.7380 ha         1 S3X       0.150000
     41 H4         -18.5050     7.3240    30.6380 ha         1 S3X       0.131500
     42 H5         -16.3850     6.3860    29.8120 ha         1 S3X       0.150000
     43 H6         -23.0830     6.0610    27.4830 h1         1 S3X       0.043200
     44 H7         -23.9700     5.4930    28.9010 h1         1 S3X       0.043200
     45 H8         -15.7900     7.1960    25.1470 h4         1 S3X       0.026100
     46 H9         -16.6380     9.5040    24.8600 ha         1 S3X       0.129000
     47 H10        -20.9620     8.1740    26.9560 ha         1 S3X       0.109000
     48 H11        -21.6320     6.9680    31.3710 h1         1 S3X       0.051700
     49 H12        -23.2800     6.3630    31.2130 h1         1 S3X       0.051700
     50 H13        -21.4130     5.1460    33.1090 ha         1 S3X       0.120000
     51 H14        -19.7330    10.8040    29.6910 h1         1 S3X       0.073700
     52 H15        -17.6980    11.0300    28.5610 ha         1 S3X       0.131500
     53 H16        -20.5070    10.4980    32.0220 hc         1 S3X       0.052367
     54 H17        -19.4770     9.0630    32.2110 hc         1 S3X       0.052367
     55 H18        -18.7420    10.6660    31.9880 hc         1 S3X       0.052367
     56 H19        -23.0690     8.3010    28.1280 h1         1 S3X       0.064700
     57 H20        -23.8570     8.1750    29.7040 h1         1 S3X       0.064700
     58 H22        -21.3050     1.8970    29.3340 ha         1 S3X       0.128000
     59 H23        -20.6640     2.8050    33.4950 ha         1 S3X       0.133000
     60 H24        -22.7500     3.5820    28.0570 hc         1 S3X       0.072700
     61 H25        -20.6160    10.4980    26.2010 ha         1 S3X       0.118000
     62 H26        -18.4600    11.1720    25.1500 ha         1 S3X       0.128000
     63 H27        -18.0480     4.2430    26.9530 h4         1 S3X       0.034100
     64 N          -14.5150     7.6130    28.2060 no         1 S3X       0.696200
     65 Cl         -20.4180     0.5530    31.7120 cl         1 S3X      -0.197000
@<TRIPOS>BOND
     1     1     7 1   
     2     1    19 1   
     3     1    38 1   
     4     2     9 1   
     5     2    31 1   
     6     2    39 1   
     7     3     6 ar  
     8     3    23 ar  
     9     3    40 1   
    10     4     5 ar  
    11     4    20 ar  
    12     4    41 1   
    13     5     6 ar  
    14     5    42 1   
    15     6    64 1   
    16     7    18 2   
    17     7    25 1   
    18     8    26 1   
    19     8    30 1   
    20     8    43 1   
    21     8    44 1   
    22     9    13 ar  
    23     9    37 ar  
    24    10    35 ar  
    25    10    36 ar  
    26    10    45 1   
    27    11    34 ar  
    28    11    35 ar  
    29    11    46 1   
    30    12    13 ar  
    31    12    33 ar  
    32    12    47 1   
    33    13    35 ar  
    34    14    26 1   
    35    14    27 1   
    36    14    48 1   
    37    14    49 1   
    38    15    27 ar  
    39    15    29 ar  
    40    15    50 1   
    41    16    27 ar  
    42    16    28 ar  
    43    16    30 1   
    44    17    28 ar  
    45    17    29 ar  
    46    17    65 1   
    47    19    20 1   
    48    19    24 1   
    49    19    51 1   
    50    20    23 ar  
    51    21    64 1   
    52    22    64 1   
    53    23    52 1   
    54    24    53 1   
    55    24    54 1   
    56    24    55 1   
    57    25    26 1   
    58    25    56 1   
    59    25    57 1   
    60    28    58 1   
    61    29    59 1   
    62    30    31 1   
    63    30    60 1   
    64    31    32 2   
    65    33    34 ar  
    66    33    61 1   
    67    34    62 1   
    68    36    37 ar  
    69    37    63 1   
@<TRIPOS>SUBSTRUCTURE
     1 S3X         1 TEMP              0 ****  ****    0 ROOT
