@<TRIPOS>MOLECULE
S3X
   65    69     1     0     0
SMALL
abcg2


@<TRIPOS>ATOM
      1 N1         -20.2300     8.4220    30.6040 ns         1 S3X      -0.495900
      2 N3         -20.1100     5.1000    27.2770 ns         1 S3X      -0.167000
      3 C4         -16.7190    11.4000    29.4010 ca         1 S3X      -0.048000
      4 C5         -17.8670     8.9140    28.9170 ca         1 S3X      -0.108000
      5 C6         -17.0420     9.4790    27.9630 ca         1 S3X      -0.048000
      6 C7         -16.4760    10.7210    28.2170 ca         1 S3X      -0.182200
      7 C8         -21.2430     9.2100    30.2220 c          1 S3X       0.591100
      8 C10        -22.6960     6.2450    28.5550 c6         1 S3X       0.194800
      9 C13        -18.7800     5.3050    26.8750 ca         1 S3X      -0.091000
     10 C15        -16.1830     5.5570    26.0840 ca         1 S3X       0.360900
     11 C17        -16.7420     7.5210    24.6930 ca         1 S3X      -0.074000
     12 C20        -19.3980     7.3470    25.5690 ca         1 S3X      -0.119000
     13 C21        -18.4620     6.3860    26.0120 ca         1 S3X      -0.029000
     14 C22        -22.9500     6.5900    30.9100 c6         1 S3X       0.223100
     15 C24        -23.1180     4.5300    32.3230 ca         1 S3X      -0.100000
     16 C26        -22.3830     4.2830    30.0520 ca         1 S3X      -0.053300
     17 C28        -22.5980     2.3630    31.4770 ca         1 S3X       0.122000
     18 O3         -21.2610    10.4240    30.3710 o          1 S3X      -0.610100
     19 C1         -19.0040     8.9300    31.1720 c3         1 S3X       0.160000
     20 C2         -18.1290     9.5730    30.1170 ca         1 S3X      -0.049300
     21 O1         -15.1640    12.4270    27.4420 o          1 S3X      -0.406000
     22 O          -15.3760    10.6960    26.2130 o          1 S3X      -0.406000
     23 C3         -17.5470    10.8150    30.3440 ca         1 S3X      -0.108000
     24 C          -18.2590     7.7970    31.8700 c3         1 S3X      -0.105100
     25 C9         -22.3870     8.4800    29.5280 c3         1 S3X       0.095800
     26 N2         -22.3230     7.0520    29.6920 n3         1 S3X      -0.766600
     27 C23        -22.8020     5.1040    31.0940 ca         1 S3X      -0.063300
     28 C27        -22.2820     2.9090    30.2480 ca         1 S3X      -0.089000
     29 C25        -23.0190     3.1660    32.5280 ca         1 S3X      -0.091000
     30 C11        -22.0380     4.8710    28.7110 c6         1 S3X      -0.099400
     31 C12        -20.5260     5.0160    28.5660 c          1 S3X       0.616100
     32 O2         -19.7670     5.0770    29.5140 o          1 S3X      -0.568100
     33 C19        -19.0050     8.3400    24.7120 ca         1 S3X      -0.084000
     34 C18        -17.6720     8.4260    24.2600 ca         1 S3X      -0.105000
     35 C16        -17.1180     6.4920    25.5840 ca         1 S3X      -0.098000
     36 N4         -16.4930     4.5900    26.9030 nb         1 S3X      -0.652000
     37 C14        -17.7810     4.4580    27.2790 ca         1 S3X       0.334900
     38 H1         -20.3120     7.4380    30.3820 hn         1 S3X       0.354500
     39 H2         -20.8110     5.0680    26.5500 hn         1 S3X       0.155000
     40 H3         -16.2800    12.3680    29.5950 ha         1 S3X       0.150000
     41 H4         -18.3070     7.9440    28.7180 ha         1 S3X       0.131500
     42 H5         -16.8480     8.9560    27.0380 ha         1 S3X       0.150000
     43 H6         -22.3550     6.7260    27.6370 h1         1 S3X       0.043200
     44 H7         -23.7850     6.1120    28.4610 h1         1 S3X       0.043200
     45 H8         -15.1440     5.6360    25.7750 h4         1 S3X       0.026100
     46 H9         -15.7120     7.5850    24.3660 ha         1 S3X       0.129000
     47 H10        -20.4240     7.3060    25.9110 ha         1 S3X       0.109000
     48 H11        -22.4990     7.1040    31.7630 h1         1 S3X       0.051700
     49 H12        -24.0230     6.8460    30.9290 h1         1 S3X       0.051700
     50 H13        -23.4460     5.1620    33.1400 ha         1 S3X       0.120000
     51 H14        -19.2540     9.6900    31.9160 h1         1 S3X       0.073700
     52 H15        -17.7450    11.3390    31.2710 ha         1 S3X       0.131500
     53 H16        -18.8820     7.3590    32.6510 hc         1 S3X       0.052367
     54 H17        -17.9860     7.0110    31.1650 hc         1 S3X       0.052367
     55 H18        -17.3460     8.1700    32.3310 hc         1 S3X       0.052367
     56 H19        -22.3020     8.7290    28.4660 h1         1 S3X       0.064700
     57 H20        -23.3340     8.9210    29.8690 h1         1 S3X       0.064700
     58 H22        -21.9600     2.2710    29.4330 ha         1 S3X       0.128000
     59 H23        -23.2640     2.7350    33.4890 ha         1 S3X       0.133000
     60 H24        -22.4120     4.2150    27.9190 hc         1 S3X       0.072700
     61 H25        -19.7260     9.0750    24.3790 ha         1 S3X       0.118000
     62 H26        -17.3880     9.2170    23.5790 ha         1 S3X       0.128000
     63 H27        -18.0060     3.6210    27.9270 h4         1 S3X       0.034100
     64 N          -15.6090    11.3250    27.2180 no         1 S3X       0.696200
     65 CL         -22.4650     0.6490    31.7100 cl         1 S3X      -0.197000
@<TRIPOS>BOND
     1     1     7 1   
     2     1    19 1   
     3     1    38 1   
     4     2     9 1   
     5     2    31 1   
     6     2    39 1   
     7     3     6 ar  
     8     3    23 ar  
     9     3    40 1   
    10     4     5 ar  
    11     4    20 ar  
    12     4    41 1   
    13     5     6 ar  
    14     5    42 1   
    15     6    64 1   
    16     7    18 2   
    17     7    25 1   
    18     8    26 1   
    19     8    30 1   
    20     8    43 1   
    21     8    44 1   
    22     9    13 ar  
    23     9    37 ar  
    24    10    35 ar  
    25    10    36 ar  
    26    10    45 1   
    27    11    34 ar  
    28    11    35 ar  
    29    11    46 1   
    30    12    13 ar  
    31    12    33 ar  
    32    12    47 1   
    33    13    35 ar  
    34    14    26 1   
    35    14    27 1   
    36    14    48 1   
    37    14    49 1   
    38    15    27 ar  
    39    15    29 ar  
    40    15    50 1   
    41    16    27 ar  
    42    16    28 ar  
    43    16    30 1   
    44    17    28 ar  
    45    17    29 ar  
    46    17    65 1   
    47    19    20 1   
    48    19    24 1   
    49    19    51 1   
    50    20    23 ar  
    51    21    64 1   
    52    22    64 1   
    53    23    52 1   
    54    24    53 1   
    55    24    54 1   
    56    24    55 1   
    57    25    26 1   
    58    25    56 1   
    59    25    57 1   
    60    28    58 1   
    61    29    59 1   
    62    30    31 1   
    63    30    60 1   
    64    31    32 2   
    65    33    34 ar  
    66    33    61 1   
    67    34    62 1   
    68    36    37 ar  
    69    37    63 1   
@<TRIPOS>SUBSTRUCTURE
     1 S3X         1 TEMP              0 ****  ****    0 ROOT
