@<TRIPOS>MOLECULE
S3Y
   26    27     1     0     0
SMALL
bcc


@<TRIPOS>ATOM
      1 C02        -26.7830   102.4110   140.4440 c3         1 S3Y       0.154400
      2 C03        -27.7770   101.6080   139.6420 c5         1 S3Y       0.095500
      3 C04        -27.8850   102.0800   138.1900 c5         1 S3Y       0.174800
      4 C06        -27.4550   100.5970   136.2600 ca         1 S3Y       0.171600
      5 C07        -27.1130    99.3070   135.8380 ca         1 S3Y      -0.160500
      6 C08        -26.4970    99.1030   134.6150 ca         1 S3Y      -0.095000
      7 C09        -26.2160   100.1790   133.7890 ca         1 S3Y      -0.005600
      8 C11        -26.5580   101.4630   134.1800 ca         1 S3Y      -0.095000
      9 C12        -27.1760   101.6680   135.4030 ca         1 S3Y      -0.160500
     10 N05        -28.1130   100.8290   137.4570 nh         1 S3Y      -0.448800
     11 N13        -28.1660    99.7680   138.3660 n7         1 S3Y      -0.270800
     12 N14        -27.3470   100.2270   139.4370 n7         1 S3Y      -0.577000
     13 O01        -26.7600   101.9030   141.7580 oh         1 S3Y      -0.601800
     14 CL10       -25.4420    99.9170   132.2560 cl         1 S3Y      -0.120400
     15 H021       -27.0780   103.4680   140.4220 h1         1 S3Y       0.032700
     16 H022       -25.8010   102.3370   139.9590 h1         1 S3Y       0.032700
     17 H031       -28.7670   101.6620   140.1220 h1         1 S3Y       0.048700
     18 H041       -28.6960   102.7960   138.0520 h1         1 S3Y       0.062700
     19 H042       -26.9530   102.5520   137.8630 h1         1 S3Y       0.062700
     20 H071       -27.3260    98.4590   136.4720 ha         1 S3Y       0.143500
     21 H081       -26.2360    98.0970   134.3130 ha         1 S3Y       0.143500
     22 H111       -26.3530   102.3080   133.5370 ha         1 S3Y       0.143500
     23 H121       -27.4520   102.6780   135.6750 ha         1 S3Y       0.143500
     24 H131       -29.1350    99.7280   138.6860 hn         1 S3Y       0.332800
     25 H141       -27.5340    99.6420   140.2430 hn         1 S3Y       0.380800
     26 H011       -26.0930   102.3830   142.2570 ho         1 S3Y       0.413000
@<TRIPOS>BOND
     1     1     2 1   
     2     1    13 1   
     3     1    15 1   
     4     1    16 1   
     5     2     3 1   
     6     2    12 1   
     7     2    17 1   
     8     3    10 1   
     9     3    18 1   
    10     3    19 1   
    11     4     5 ar  
    12     4     9 ar  
    13     4    10 1   
    14     5     6 ar  
    15     5    20 1   
    16     6     7 ar  
    17     6    21 1   
    18     7     8 ar  
    19     7    14 1   
    20     8     9 ar  
    21     8    22 1   
    22     9    23 1   
    23    10    11 1   
    24    11    12 1   
    25    11    24 1   
    26    12    25 1   
    27    13    26 1   
@<TRIPOS>SUBSTRUCTURE
     1 S3Y         1 TEMP              0 ****  ****    0 ROOT
