@<TRIPOS>MOLECULE
S3Y
   26    27     1     0     0
SMALL
No Charge or Current Charge


@<TRIPOS>ATOM
      1 C02        -26.9480   102.5100   140.7360 c3         1 S3Y       0.177600
      2 C03        -27.7010   101.6260   139.7030 c5         1 S3Y       0.095500
      3 C04        -27.5470   102.1030   138.2160 c5         1 S3Y       0.174800
      4 C06        -27.2840   100.5670   136.1660 ca         1 S3Y       0.310000
      5 C07        -27.0670    99.2550   135.6850 ca         1 S3Y      -0.142500
      6 C08        -26.6560    99.0310   134.3580 ca         1 S3Y      -0.077000
      7 C09        -26.4620   100.1170   133.4910 ca         1 S3Y       0.086000
      8 C11        -26.6790   101.4250   133.9480 ca         1 S3Y      -0.077000
      9 C12        -27.0890   101.6470   135.2760 ca         1 S3Y      -0.142500
     10 N05        -27.7060   100.8020   137.5090 nh         1 S3Y      -0.587200
     11 N13        -27.8570    99.7240   138.4750 n7         1 S3Y      -0.326000
     12 N14        -27.2350   100.2010   139.6750 n7         1 S3Y      -0.632200
     13 O01        -27.1660   102.0340   142.0770 oh         1 S3Y      -0.664000
     14 Cl10       -25.9500    99.8380   131.8320 cl         1 S3Y      -0.212000
     15 H021       -27.3050   103.5450   140.6390 h1         1 S3Y       0.032700
     16 H022       -25.8760   102.5050   140.4970 h1         1 S3Y       0.032700
     17 H031       -28.7690   101.6510   139.9670 h1         1 S3Y       0.048700
     18 H041       -28.3100   102.8420   137.9370 h1         1 S3Y       0.062700
     19 H042       -26.5500   102.5310   138.0380 h1         1 S3Y       0.062700
     20 H071       -27.2110    98.4020   136.3400 ha         1 S3Y       0.125500
     21 H081       -26.4900    98.0170   134.0030 ha         1 S3Y       0.125500
     22 H111       -26.5330   102.2660   133.2750 ha         1 S3Y       0.125500
     23 H121       -27.2610   102.6670   135.6070 ha         1 S3Y       0.125500
     24 H131       -28.8770    99.5550   138.5870 hn         1 S3Y       0.388000
     25 H141       -27.5510    99.7040   140.5240 hn         1 S3Y       0.436000
     26 H011       -26.6320   102.6060   142.6730 ho         1 S3Y       0.452000
@<TRIPOS>BOND
     1     1     2 1   
     2     1    13 1   
     3     1    15 1   
     4     1    16 1   
     5     2     3 1   
     6     2    12 1   
     7     2    17 1   
     8     3    10 1   
     9     3    18 1   
    10     3    19 1   
    11     4     5 ar  
    12     4     9 ar  
    13     4    10 1   
    14     5     6 ar  
    15     5    20 1   
    16     6     7 ar  
    17     6    21 1   
    18     7     8 ar  
    19     7    14 1   
    20     8     9 ar  
    21     8    22 1   
    22     9    23 1   
    23    10    11 1   
    24    11    12 1   
    25    11    24 1   
    26    12    25 1   
    27    13    26 1   
@<TRIPOS>SUBSTRUCTURE
     1 S3Y         1 TEMP              0 ****  ****    0 ROOT
