@<TRIPOS>MOLECULE
S3Z
   50    52     1     0     0
SMALL
abcg2


@<TRIPOS>ATOM
      1 N1          -9.8730    -3.4760   -42.0580 nb         1 S3Z      -0.216000
      2 N3         -11.0880    -2.8000   -43.9690 nb         1 S3Z      -0.299000
      3 C4         -10.5920    -1.5780   -43.9180 ca         1 S3Z       0.412900
      4 C5          -9.6600    -1.2120   -42.8910 ca         1 S3Z      -0.177000
      5 C6          -9.0680     0.0640   -42.7530 ca         1 S3Z      -0.150000
      6 C7          -8.1920     0.3220   -41.7320 ca         1 S3Z       0.106100
      7 C8          -7.8700    -0.7110   -40.7970 ca         1 S3Z       0.156100
      8 C10         -9.3430    -2.2270   -41.9760 ca         1 S3Z       0.075000
      9 C17        -13.3820    -0.7000   -45.2610 ca         1 S3Z      -0.075300
     10 C21        -15.8720    -0.2140   -44.1060 ca         1 S3Z      -0.131000
     11 C22        -15.3990    -1.5090   -44.2440 ca         1 S3Z      -0.155300
     12 C24        -12.0060    -0.9710   -45.8470 c3         1 S3Z       0.281800
     13 C26        -16.2590    -2.6460   -43.7850 c3         1 S3Z       0.354300
     14 C12         -6.6400    -1.3190   -38.8740 c3         1 S3Z       0.142900
     15 C14         -7.8590     2.5720   -42.3760 c3         1 S3Z       0.144900
     16 C18        -13.8450     0.5990   -45.1120 ca         1 S3Z      -0.148000
     17 C19        -15.0970     0.8650   -44.5460 ca         1 S3Z       0.289000
     18 C2         -10.7030    -3.6930   -43.0430 ca         1 S3Z       0.187300
     19 C23        -14.1650    -1.7660   -44.8280 ca         1 S3Z      -0.081000
     20 C25        -11.7210    -0.1820   -47.1160 c3         1 S3Z      -0.101100
     21 C9          -8.4390    -1.9510   -40.9270 ca         1 S3Z      -0.188000
     22 F27        -15.5420    -3.7330   -43.4740 f          1 S3Z      -0.114667
     23 F28        -16.9810    -2.3330   -42.7000 f          1 S3Z      -0.114667
     24 F29        -17.1390    -3.0240   -44.7260 f          1 S3Z      -0.114667
     25 N15        -10.9690    -0.7000   -44.8650 nu         1 S3Z      -0.926100
     26 N20        -15.5770     2.1500   -44.4650 nv         1 S3Z      -1.078000
     27 O11         -7.0060    -0.3550   -39.8430 os         1 S3Z      -0.318100
     28 O13         -7.5760     1.4940   -41.5090 os         1 S3Z      -0.318100
     29 H30         -9.3010     0.8500   -43.4580 ha         1 S3Z       0.110000
     30 H45        -16.8370    -0.0150   -43.6550 ha         1 S3Z       0.128000
     31 H47        -11.9480    -2.0320   -46.0860 h1         1 S3Z       0.095700
     32 H32         -5.9480    -0.8260   -38.1960 h1         1 S3Z       0.045033
     33 H33         -7.5040    -1.6700   -38.3050 h1         1 S3Z       0.045033
     34 H34         -6.1410    -2.1790   -39.3270 h1         1 S3Z       0.045033
     35 H35         -7.2800     3.4180   -42.0150 h1         1 S3Z       0.039367
     36 H36         -7.5620     2.3560   -43.4060 h1         1 S3Z       0.039367
     37 H37         -8.9190     2.8390   -42.3630 h1         1 S3Z       0.039367
     38 H39        -11.0560    -5.4920   -44.1450 hc         1 S3Z       0.057367
     39 H40        -10.9610    -5.7210   -42.3920 hc         1 S3Z       0.057367
     40 H41        -12.3970    -4.9950   -43.1320 hc         1 S3Z       0.057367
     41 H42        -13.2370     1.4350   -45.4390 ha         1 S3Z       0.110000
     42 H46        -13.7930    -2.7750   -44.9370 ha         1 S3Z       0.146000
     43 H50        -10.7610    -0.4820   -47.5370 hc         1 S3Z       0.045700
     44 H48        -12.4920    -0.3720   -47.8610 hc         1 S3Z       0.045700
     45 H49        -11.6860     0.8930   -46.9380 hc         1 S3Z       0.045700
     46 H31         -8.2160    -2.7530   -40.2370 ha         1 S3Z       0.142000
     47 H38        -10.6890     0.2630   -44.7730 hn         1 S3Z       0.486000
     48 H43        -16.3020     2.3130   -43.7850 hn         1 S3Z       0.455000
     49 H44        -14.8880     2.8850   -44.4730 hn         1 S3Z       0.455000
     50 C16        -11.3090    -5.0560   -43.1770 c3         1 S3Z      -0.134400
@<TRIPOS>BOND
     1     1     8 ar  
     2     1    18 ar  
     3     2     3 ar  
     4     2    18 ar  
     5     3     4 ar  
     6     3    25 1   
     7     4     5 ar  
     8     4     8 ar  
     9     5     6 ar  
    10     5    29 1   
    11     6     7 ar  
    12     6    28 1   
    13     7    21 ar  
    14     7    27 1   
    15     8    21 ar  
    16     9    12 1   
    17     9    16 ar  
    18     9    19 ar  
    19    10    11 ar  
    20    10    17 ar  
    21    10    30 1   
    22    11    13 1   
    23    11    19 ar  
    24    12    20 1   
    25    12    25 1   
    26    12    31 1   
    27    13    22 1   
    28    13    23 1   
    29    13    24 1   
    30    14    27 1   
    31    14    32 1   
    32    14    33 1   
    33    14    34 1   
    34    15    28 1   
    35    15    35 1   
    36    15    36 1   
    37    15    37 1   
    38    16    17 ar  
    39    16    41 1   
    40    17    26 1   
    41    18    50 1   
    42    19    42 1   
    43    20    43 1   
    44    20    44 1   
    45    20    45 1   
    46    21    46 1   
    47    25    47 1   
    48    26    48 1   
    49    26    49 1   
    50    38    50 1   
    51    39    50 1   
    52    40    50 1   
@<TRIPOS>SUBSTRUCTURE
     1 S3Z         1 TEMP              0 ****  ****    0 ROOT
