@<TRIPOS>MOLECULE
S3Z
   50    52     1     0     0
SMALL
No Charge or Current Charge


@<TRIPOS>ATOM
      1 N1         -10.0870    -3.3570   -41.9150 nb         1 S3Z      -0.216000
      2 N3         -11.1540    -2.8270   -43.9990 nb         1 S3Z      -0.299000
      3 C4         -10.5470    -1.6280   -44.0040 ca         1 S3Z       0.412900
      4 C5          -9.6720    -1.2350   -42.9610 ca         1 S3Z      -0.177000
      5 C6          -9.0170     0.0200   -42.9370 ca         1 S3Z      -0.150000
      6 C7          -8.1560     0.3540   -41.8670 ca         1 S3Z       0.106100
      7 C8          -7.9510    -0.5720   -40.8180 ca         1 S3Z       0.156100
      8 C10         -9.4660    -2.1590   -41.9080 ca         1 S3Z       0.075000
      9 C17        -13.2910    -0.7300   -45.2730 ca         1 S3Z      -0.075300
     10 C21        -15.7230    -0.4190   -43.8800 ca         1 S3Z      -0.131000
     11 C22        -15.3770    -1.6870   -44.3990 ca         1 S3Z      -0.155300
     12 C24        -11.9650    -0.9220   -46.0190 c3         1 S3Z       0.281800
     13 C26        -16.3030    -2.8980   -44.2260 c3         1 S3Z       0.354300
     14 C12         -6.8310    -1.0930   -38.6710 c3         1 S3Z       0.142900
     15 C14         -7.6420     2.5810   -42.8280 c3         1 S3Z       0.144900
     16 C18        -13.6510     0.5220   -44.7300 ca         1 S3Z      -0.148000
     17 C19        -14.8620     0.6780   -44.0420 ca         1 S3Z       0.289000
     18 C2         -10.9000    -3.6320   -42.9540 ca         1 S3Z       0.187300
     19 C23        -14.1610    -1.8260   -45.1010 ca         1 S3Z      -0.081000
     20 C25        -11.7840     0.0740   -47.1810 c3         1 S3Z      -0.101100
     21 C9          -8.6090    -1.8210   -40.8490 ca         1 S3Z      -0.188000
     22 F27        -15.6100    -4.0280   -43.9540 f          1 S3Z      -0.114667
     23 F28        -17.1910    -2.7400   -43.2180 f          1 S3Z      -0.114667
     24 F29        -17.0180    -3.1340   -45.3490 f          1 S3Z      -0.114667
     25 N15        -10.8350    -0.7970   -45.0860 nu         1 S3Z      -0.926100
     26 N20        -15.2030     1.9010   -43.5250 nv         1 S3Z      -1.078000
     27 O11         -7.1020    -0.2190   -39.7810 os         1 S3Z      -0.318100
     28 O13         -7.4980     1.5740   -41.8110 os         1 S3Z      -0.318100
     29 H30         -9.1780     0.7260   -43.7440 ha         1 S3Z       0.110000
     30 H45        -16.6600    -0.2810   -43.3480 ha         1 S3Z       0.128000
     31 H47        -11.9590    -1.9300   -46.4620 h1         1 S3Z       0.095700
     32 H32         -6.1350    -0.6130   -37.9720 h1         1 S3Z       0.045033
     33 H33         -7.7530    -1.3270   -38.1240 h1         1 S3Z       0.045033
     34 H34         -6.3750    -2.0300   -39.0140 h1         1 S3Z       0.045033
     35 H35         -7.0340     3.4600   -42.5800 h1         1 S3Z       0.039367
     36 H36         -7.3100     2.2020   -43.8030 h1         1 S3Z       0.039367
     37 H37         -8.6880     2.9050   -42.9110 h1         1 S3Z       0.039367
     38 H39        -11.1480    -5.6530   -43.6900 hc         1 S3Z       0.057367
     39 H40        -11.5350    -5.4700   -41.9720 hc         1 S3Z       0.057367
     40 H41        -12.6620    -4.8740   -43.1980 hc         1 S3Z       0.057367
     41 H42        -12.9850     1.3730   -44.8390 ha         1 S3Z       0.110000
     42 H46        -13.8850    -2.7960   -45.5100 ha         1 S3Z       0.146000
     43 H50        -10.8650    -0.1480   -47.7360 hc         1 S3Z       0.045700
     44 H48        -12.6270    -0.0010   -47.8780 hc         1 S3Z       0.045700
     45 H49        -11.7270     1.1080   -46.8220 hc         1 S3Z       0.045700
     46 H31         -8.4670    -2.5450   -40.0530 ha         1 S3Z       0.142000
     47 H38        -10.3650     0.1030   -45.0680 hn         1 S3Z       0.486000
     48 H43        -16.0050     1.9850   -42.9030 hn         1 S3Z       0.455000
     49 H44        -14.5210     2.6570   -43.5150 hn         1 S3Z       0.455000
     50 C16        -11.5980    -4.9810   -42.9510 c3         1 S3Z      -0.134400
@<TRIPOS>BOND
     1     1     8 ar  
     2     1    18 ar  
     3     2     3 ar  
     4     2    18 ar  
     5     3     4 ar  
     6     3    25 1   
     7     4     5 ar  
     8     4     8 ar  
     9     5     6 ar  
    10     5    29 1   
    11     6     7 ar  
    12     6    28 1   
    13     7    21 ar  
    14     7    27 1   
    15     8    21 ar  
    16     9    12 1   
    17     9    16 ar  
    18     9    19 ar  
    19    10    11 ar  
    20    10    17 ar  
    21    10    30 1   
    22    11    13 1   
    23    11    19 ar  
    24    12    20 1   
    25    12    25 1   
    26    12    31 1   
    27    13    22 1   
    28    13    23 1   
    29    13    24 1   
    30    14    27 1   
    31    14    32 1   
    32    14    33 1   
    33    14    34 1   
    34    15    28 1   
    35    15    35 1   
    36    15    36 1   
    37    15    37 1   
    38    16    17 ar  
    39    16    41 1   
    40    17    26 1   
    41    18    50 1   
    42    19    42 1   
    43    20    43 1   
    44    20    44 1   
    45    20    45 1   
    46    21    46 1   
    47    25    47 1   
    48    26    48 1   
    49    26    49 1   
    50    38    50 1   
    51    39    50 1   
    52    40    50 1   
@<TRIPOS>SUBSTRUCTURE
     1 S3Z         1 TEMP              0 ****  ****    0 ROOT
