@<TRIPOS>MOLECULE
S40
   53    56     1     0     0
SMALL
bcc


@<TRIPOS>ATOM
      1 C1         -12.3810    22.5050    18.9900 ca         1 S40       0.431200
      2 C10        -16.5880    20.1630    16.9040 ca         1 S40      -0.147600
      3 C11        -17.7120    20.7180    16.3070 ca         1 S40      -0.106000
      4 C12        -18.8620    19.9620    16.1090 ca         1 S40       0.068600
      5 C13        -18.9160    18.6230    16.5020 ca         1 S40      -0.016300
      6 C14        -17.7780    18.0810    17.1030 ca         1 S40      -0.146000
      7 C15        -16.6320    18.8270    17.2970 ca         1 S40      -0.062000
      8 C18        -21.7500    20.4540    17.4760 ca         1 S40      -0.280500
      9 C19        -22.8890    19.7850    17.0420 ca         1 S40      -0.022000
     10 C2         -13.6970    22.9240    18.8500 ca         1 S40      -0.228600
     11 C20        -23.4950    18.8690    17.8790 ca         1 S40      -0.154000
     12 C21        -22.9770    18.6020    19.1510 ca         1 S40       0.018700
     13 C22        -21.8380    19.2940    19.5620 ca         1 S40      -0.154000
     14 C23        -21.2220    20.2210    18.7370 ca         1 S40      -0.022000
     15 C3         -14.4220    23.1580    20.0120 ca         1 S40      -0.082000
     16 C35        -20.1240    17.7640    16.2890 c3         1 S40      -0.053800
     17 C4         -13.8090    22.9680    21.2400 ca         1 S40      -0.252300
     18 C44        -23.5970    17.6160    20.0600 cx         1 S40      -0.109400
     19 C45        -25.0930    17.4420    20.1110 cx         1 S40      -0.114400
     20 C46        -24.2500    16.3700    19.5170 cx         1 S40      -0.114400
     21 C5         -12.4860    22.5490    21.2610 ca         1 S40       0.405200
     22 C7         -14.3100    23.1140    17.4870 c3         1 S40       0.158300
     23 C9         -15.3260    20.9330    17.1140 c          1 S40       0.678700
     24 N16        -19.9950    20.5520    15.4730 nu         1 S40      -0.692500
     25 N6         -11.7800    22.3210    20.1600 nb         1 S40      -0.666000
     26 N8         -15.4570    22.2630    17.2590 ns         1 S40      -0.570900
     27 O26        -14.2390    20.3740    17.1500 o          1 S40      -0.591100
     28 O27        -21.9070    22.1340    15.4450 o          1 S40      -0.616300
     29 O28        -20.1410    22.4840    17.1890 o          1 S40      -0.616300
     30 S17        -20.9480    21.5760    16.3860 sy         1 S40       1.281200
     31 H1         -11.7840    22.3080    18.1050 h4         1 S40       0.025100
     32 H2         -17.7020    21.7410    15.9510 ha         1 S40       0.140000
     33 H3         -17.7930    17.0440    17.4120 ha         1 S40       0.140000
     34 H4         -15.7650    18.3710    17.7560 ha         1 S40       0.158000
     35 H5         -23.2990    19.9690    16.0580 ha         1 S40       0.155500
     36 H6         -24.3810    18.3560    17.5290 ha         1 S40       0.137500
     37 H7         -21.4240    19.1070    20.5450 ha         1 S40       0.137500
     38 H8         -20.3410    20.7460    19.0790 ha         1 S40       0.155500
     39 H9         -15.4540    23.4840    19.9620 ha         1 S40       0.133000
     40 H10        -20.7090    18.0920    15.4340 hc         1 S40       0.053367
     41 H11        -19.8300    16.7260    16.1340 hc         1 S40       0.053367
     42 H12        -20.7780    17.7880    17.1620 hc         1 S40       0.053367
     43 H13        -14.3410    23.1420    22.1650 ha         1 S40       0.140000
     44 H14        -23.0790    17.5010    21.0050 hc         1 S40       0.086700
     45 H15        -25.6940    18.0550    19.4500 hc         1 S40       0.076700
     46 H16        -25.5340    17.2720    21.0840 hc         1 S40       0.076700
     47 H17        -24.2620    16.2410    18.4420 hc         1 S40       0.076700
     48 H18        -24.1070    15.4550    20.0760 hc         1 S40       0.076700
     49 H19        -11.9780    22.3890    22.2060 h4         1 S40       0.018100
     50 H20        -13.5600    22.9380    16.7150 h1         1 S40       0.060200
     51 H21        -14.6490    24.1430    17.3690 h1         1 S40       0.060200
     52 H22        -19.7960    20.9790    14.5720 hn         1 S40       0.434800
     53 H23        -16.3710    22.6700    17.3610 hn         1 S40       0.324500
@<TRIPOS>BOND
     1     1    10 ar  
     2     1    25 ar  
     3     1    31 1   
     4     2     3 ar  
     5     2     7 ar  
     6     2    23 1   
     7     3     4 ar  
     8     3    32 1   
     9     4     5 ar  
    10     4    24 1   
    11     5     6 ar  
    12     5    16 1   
    13     6     7 ar  
    14     6    33 1   
    15     7    34 1   
    16     8     9 ar  
    17     8    14 ar  
    18     8    30 1   
    19     9    11 ar  
    20     9    35 1   
    21    10    15 ar  
    22    10    22 1   
    23    11    12 ar  
    24    11    36 1   
    25    12    13 ar  
    26    12    18 1   
    27    13    14 ar  
    28    13    37 1   
    29    14    38 1   
    30    15    17 ar  
    31    15    39 1   
    32    16    40 1   
    33    16    41 1   
    34    16    42 1   
    35    17    21 ar  
    36    17    43 1   
    37    18    19 1   
    38    18    20 1   
    39    18    44 1   
    40    19    20 1   
    41    19    45 1   
    42    19    46 1   
    43    20    47 1   
    44    20    48 1   
    45    21    25 ar  
    46    21    49 1   
    47    22    26 1   
    48    22    50 1   
    49    22    51 1   
    50    23    26 1   
    51    23    27 2   
    52    24    30 1   
    53    24    52 1   
    54    26    53 1   
    55    28    30 2   
    56    29    30 2   
@<TRIPOS>SUBSTRUCTURE
     1 S40         1 TEMP              0 ****  ****    0 ROOT
