@<TRIPOS>MOLECULE
S40
   53    56     1     0     0
SMALL
No Charge or Current Charge


@<TRIPOS>ATOM
      1 C1         -12.8160    22.0130    19.6290 ca         1 S40       0.365900
      2 C10        -16.5270    19.9040    16.7880 ca         1 S40      -0.147600
      3 C11        -17.6070    20.7230    16.3770 ca         1 S40      -0.088000
      4 C12        -18.8690    20.1730    16.0810 ca         1 S40       0.207000
      5 C13        -19.0630    18.7710    16.1700 ca         1 S40      -0.016300
      6 C14        -17.9920    17.9560    16.5790 ca         1 S40      -0.128000
      7 C15        -16.7410    18.5130    16.8870 ca         1 S40      -0.044000
      8 C18        -21.6850    20.5120    17.7510 ca         1 S40      -0.280500
      9 C19        -22.9350    19.9730    17.3920 ca         1 S40      -0.004000
     10 C2         -13.6530    22.8200    18.8340 ca         1 S40      -0.163300
     11 C20        -23.4990    18.9380    18.1580 ca         1 S40      -0.136000
     12 C21        -22.8240    18.4290    19.2880 ca         1 S40       0.018700
     13 C22        -21.5740    18.9760    19.6380 ca         1 S40      -0.136000
     14 C23        -21.0050    20.0110    18.8770 ca         1 S40      -0.004000
     15 C3         -14.3670    23.8650    19.4480 ca         1 S40      -0.064000
     16 C35        -20.3900    18.0970    15.8230 c3         1 S40      -0.053800
     17 C4         -14.2070    24.0550    20.8300 ca         1 S40      -0.169000
     18 C44        -23.4060    17.3120    20.1230 cx         1 S40      -0.109400
     19 C45        -24.8930    17.1780    20.3760 cx         1 S40      -0.114400
     20 C46        -24.1820    16.1660    19.5090 cx         1 S40      -0.114400
     21 C5         -13.3480    23.2040    21.5450 ca         1 S40       0.339900
     22 C7         -13.7820    22.5590    17.3440 c3         1 S40       0.158300
     23 C9         -15.1620    20.4690    17.1290 c          1 S40       0.611700
     24 N16        -19.8980    21.0350    15.6960 nu         1 S40      -0.886100
     25 N6         -12.6580    22.1960    20.9630 nb         1 S40      -0.666000
     26 N8         -15.0140    21.8350    17.0350 ns         1 S40      -0.503900
     27 O26        -14.2300    19.7550    17.4710 o          1 S40      -0.591100
     28 O27        -21.9330    22.4170    15.8720 o          1 S40      -0.545500
     29 O28        -20.0320    22.6180    17.5810 o          1 S40      -0.545500
     30 S17        -20.9390    21.8120    16.7610 sy         1 S40       1.139600
     31 H1         -12.2490    21.1940    19.1870 h4         1 S40       0.025100
     32 H2         -17.4870    21.7980    16.2960 ha         1 S40       0.122000
     33 H3         -18.1280    16.8800    16.6560 ha         1 S40       0.122000
     34 H4         -15.9330    17.8530    17.2000 ha         1 S40       0.140000
     35 H5         -23.4690    20.3440    16.5190 ha         1 S40       0.137500
     36 H6         -24.4630    18.5340    17.8620 ha         1 S40       0.119500
     37 H7         -21.0350    18.5970    20.5020 ha         1 S40       0.119500
     38 H8         -20.0330    20.4120    19.1600 ha         1 S40       0.137500
     39 H9         -15.0260    24.5100    18.8710 ha         1 S40       0.115000
     40 H10        -21.0290    18.7240    15.1920 hc         1 S40       0.053367
     41 H11        -20.2230    17.1610    15.2770 hc         1 S40       0.053367
     42 H12        -20.9500    17.8500    16.7320 hc         1 S40       0.053367
     43 H13        -14.7380    24.8490    21.3460 ha         1 S40       0.122000
     44 H14        -22.7610    17.0490    20.9590 hc         1 S40       0.086700
     45 H15        -25.5660    17.8810    19.8910 hc         1 S40       0.076700
     46 H16        -25.2090    16.8620    21.3670 hc         1 S40       0.076700
     47 H17        -24.3750    16.1870    18.4390 hc         1 S40       0.076700
     48 H18        -24.0220    15.1720    19.9190 hc         1 S40       0.076700
     49 H19        -13.2070    23.3320    22.6180 h4         1 S40       0.018100
     50 H20        -12.9190    21.9830    16.9820 h1         1 S40       0.060200
     51 H21        -13.7910    23.5150    16.8040 h1         1 S40       0.060200
     52 H22        -19.5810    21.8220    15.1460 hn         1 S40       0.490000
     53 H23        -15.8240    22.3690    16.7510 hn         1 S40       0.324500
@<TRIPOS>BOND
     1     1    10 ar  
     2     1    25 ar  
     3     1    31 1   
     4     2     3 ar  
     5     2     7 ar  
     6     2    23 1   
     7     3     4 ar  
     8     3    32 1   
     9     4     5 ar  
    10     4    24 1   
    11     5     6 ar  
    12     5    16 1   
    13     6     7 ar  
    14     6    33 1   
    15     7    34 1   
    16     8     9 ar  
    17     8    14 ar  
    18     8    30 1   
    19     9    11 ar  
    20     9    35 1   
    21    10    15 ar  
    22    10    22 1   
    23    11    12 ar  
    24    11    36 1   
    25    12    13 ar  
    26    12    18 1   
    27    13    14 ar  
    28    13    37 1   
    29    14    38 1   
    30    15    17 ar  
    31    15    39 1   
    32    16    40 1   
    33    16    41 1   
    34    16    42 1   
    35    17    21 ar  
    36    17    43 1   
    37    18    19 1   
    38    18    20 1   
    39    18    44 1   
    40    19    20 1   
    41    19    45 1   
    42    19    46 1   
    43    20    47 1   
    44    20    48 1   
    45    21    25 ar  
    46    21    49 1   
    47    22    26 1   
    48    22    50 1   
    49    22    51 1   
    50    23    26 1   
    51    23    27 2   
    52    24    30 1   
    53    24    52 1   
    54    26    53 1   
    55    28    30 2   
    56    29    30 2   
@<TRIPOS>SUBSTRUCTURE
     1 S40         1 TEMP              0 ****  ****    0 ROOT
