@<TRIPOS>MOLECULE
S41
   52    55     1     0     0
SMALL
No Charge or Current Charge


@<TRIPOS>ATOM
      1 C1          -4.0870     0.9050    -0.3640 ca         1 S41       0.075100
      2 C2          -3.7110    -0.2770     0.2110 ca         1 S41      -0.107800
      3 C3          -2.3940    -0.5350     0.5980 ca         1 S41       0.165100
      4 C4          -1.4360     0.4840     0.3960 ca         1 S41      -0.188000
      5 C5          -1.8040     1.7280    -0.2080 ca         1 S41      -0.116600
      6 C6          -3.1590     1.9280    -0.5910 ca         1 S41      -0.065000
      7 O7          -5.4330     0.9470    -0.6740 os         1 S41      -0.165200
      8 C8          -5.9260    -0.2920    -0.2630 cc         1 S41       0.040900
      9 C9          -4.9080    -1.0520     0.2750 cd         1 S41      -0.222200
     10 C10         -7.3840    -0.5960    -0.4530 c3         1 S41      -0.034900
     11 C11         -0.7970     2.8390    -0.4520 c          1 S41       0.623700
     12 O12         -2.0660    -1.7370     1.1840 os         1 S41      -0.223200
     13 O13         -1.1290     3.9020    -0.9620 o          1 S41      -0.519100
     14 N14          0.5050     2.5590    -0.0880 ns         1 S41      -0.326900
     15 C15         -0.8990    -2.4120     0.8930 ca         1 S41      -0.003900
     16 C16         -0.2770    -3.2070     1.8700 ca         1 S41       0.098400
     17 N17          0.8600    -3.8840     1.6080 nb         1 S41      -0.136500
     18 C18          1.3870    -3.7670     0.3620 ca         1 S41       0.079500
     19 N19          0.8320    -3.0480    -0.6490 nb         1 S41      -0.136500
     20 C20         -0.3040    -2.3720    -0.3830 ca         1 S41       0.098400
     21 C21          2.6510    -4.5720     0.0780 c          1 S41       0.537600
     22 N22          3.6200    -4.0630    -0.8290 n          1 S41      -0.393800
     23 O23          2.8250    -5.6660     0.6080 o          1 S41      -0.566100
     24 C24          4.7720    -4.9060    -1.2200 c3         1 S41       0.091300
     25 C25          3.7400    -2.6130    -1.1120 c3         1 S41       0.091300
     26 C26          1.6570     3.3660    -0.1340 ca         1 S41       0.427900
     27 N27          1.4730     4.6740     0.1810 nb         1 S41      -0.642000
     28 C28          2.6050     5.4320     0.1960 ca         1 S41       0.326900
     29 C29          3.8960     4.8900    -0.0790 ca         1 S41       0.271300
     30 N30          4.0810     3.5730    -0.3670 nb         1 S41      -0.621000
     31 C31          2.9480     2.8160    -0.3830 ca         1 S41       0.249900
     32 C32          5.1470     5.7510    -0.0560 c3         1 S41      -0.134400
     33 H4          -0.4150     0.3010     0.7190 ha         1 S41       0.126000
     34 H6          -3.4860     2.8570    -1.0520 ha         1 S41       0.157000
     35 H9          -5.0090    -2.0590     0.6730 ha         1 S41       0.225000
     36 H10         -8.0050     0.1240     0.0920 hc         1 S41       0.062033
     37 H10A        -7.6570    -0.5470    -1.5130 hc         1 S41       0.062033
     38 H10B        -7.6280    -1.6000    -0.0870 hc         1 S41       0.062033
     39 HN14         0.6660     1.6240     0.2570 hn         1 S41       0.158000
     40 H16         -0.6890    -3.3010     2.8730 h4         1 S41       0.044600
     41 H20         -0.7370    -1.8030    -1.2040 h4         1 S41       0.044600
     42 H24          5.2870    -4.4700    -2.0860 h1         1 S41       0.044700
     43 H24A         5.4780    -4.9800    -0.3820 h1         1 S41       0.044700
     44 H24B         4.4270    -5.9120    -1.4910 h1         1 S41       0.044700
     45 H25          3.4060    -2.0260    -0.2470 h1         1 S41       0.044700
     46 H25A         4.7860    -2.3510    -1.3200 h1         1 S41       0.044700
     47 H25B         3.1320    -2.3550    -1.9880 h1         1 S41       0.044700
     48 H28          2.4810     6.4880     0.4340 h4         1 S41       0.034100
     49 H31          3.0720     1.7560    -0.5980 h4         1 S41       0.024100
     50 H32          5.8350     5.4210     0.7310 hc         1 S41       0.052700
     51 H32A         5.6790     5.6970    -1.0140 hc         1 S41       0.052700
     52 H32B         4.9070     6.8040     0.1310 hc         1 S41       0.052700
@<TRIPOS>BOND
     1     1     2 ar  
     2     1     6 ar  
     3     1     7 1   
     4     2     3 ar  
     5     2     9 1   
     6     3     4 ar  
     7     3    12 1   
     8     4     5 ar  
     9     4    33 1   
    10     5     6 ar  
    11     5    11 1   
    12     6    34 1   
    13     7     8 1   
    14     8     9 2   
    15     8    10 1   
    16     9    35 1   
    17    10    36 1   
    18    10    37 1   
    19    10    38 1   
    20    11    13 2   
    21    11    14 1   
    22    12    15 1   
    23    14    26 1   
    24    14    39 1   
    25    15    16 ar  
    26    15    20 ar  
    27    16    17 ar  
    28    16    40 1   
    29    17    18 ar  
    30    18    19 ar  
    31    18    21 1   
    32    19    20 ar  
    33    20    41 1   
    34    21    22 1   
    35    21    23 2   
    36    22    24 1   
    37    22    25 1   
    38    24    42 1   
    39    24    43 1   
    40    24    44 1   
    41    25    45 1   
    42    25    46 1   
    43    25    47 1   
    44    26    27 ar  
    45    26    31 ar  
    46    27    28 ar  
    47    28    29 ar  
    48    28    48 1   
    49    29    30 ar  
    50    29    32 1   
    51    30    31 ar  
    52    31    49 1   
    53    32    50 1   
    54    32    51 1   
    55    32    52 1   
@<TRIPOS>SUBSTRUCTURE
     1 S41         1 TEMP              0 ****  ****    0 ROOT
