@<TRIPOS>MOLECULE
S41
   52    55     1     0     0
SMALL
bcc


@<TRIPOS>ATOM
      1 C1          -4.1350     0.9310    -0.0510 ca         1 S41       0.075100
      2 C2          -3.8430    -0.4260     0.0850 ca         1 S41      -0.107800
      3 C3          -2.5160    -0.8000     0.2870 ca         1 S41       0.165100
      4 C4          -1.5400     0.1770     0.3290 ca         1 S41      -0.206000
      5 C5          -1.8750     1.5330     0.1680 ca         1 S41      -0.116600
      6 C6          -3.1910     1.9380    -0.0080 ca         1 S41      -0.083000
      7 O7          -5.4610     1.0890    -0.2360 os         1 S41      -0.165200
      8 C8          -6.0270    -0.1510    -0.2180 cc         1 S41       0.040900
      9 C9          -5.0940    -1.1110    -0.0260 cd         1 S41      -0.172200
     10 C10         -7.4920    -0.2160    -0.4050 c3         1 S41      -0.034900
     11 C11         -0.8220     2.5880     0.2100 c          1 S41       0.690700
     12 O12         -2.2770    -2.1310     0.4620 os         1 S41      -0.223200
     13 O13         -1.0420     3.7030     0.6310 o          1 S41      -0.519100
     14 N14          0.3870     2.1810    -0.2920 ns         1 S41      -0.560400
     15 C15         -0.9950    -2.5760     0.3880 ca         1 S41      -0.134500
     16 C16         -0.3430    -3.0330     1.5210 ca         1 S41       0.426700
     17 N17          0.8950    -3.5030     1.4570 nb         1 S41      -0.662500
     18 C18          1.4830    -3.4820     0.2730 ca         1 S41       0.605500
     19 N19          0.9410    -3.0740    -0.8650 nb         1 S41      -0.662500
     20 C20         -0.3060    -2.6310    -0.8140 ca         1 S41       0.426700
     21 C21          2.8640    -4.0830     0.2020 c          1 S41       0.604600
     22 N22          3.8470    -3.3040    -0.2670 n          1 S41      -0.460800
     23 O23          2.9980    -5.2470     0.5510 o          1 S41      -0.566100
     24 C24          5.1680    -3.8490    -0.5060 c3         1 S41       0.091300
     25 C25          3.7070    -1.8910    -0.5610 c3         1 S41       0.091300
     26 C26          1.5740     2.9010    -0.3280 ca         1 S41       0.427900
     27 N27          1.7980     3.8630     0.5440 nb         1 S41      -0.642000
     28 C28          2.9620     4.4930     0.4630 ca         1 S41       0.326900
     29 C29          3.9320     4.1660    -0.4760 ca         1 S41       0.271300
     30 N30          3.6980     3.1760    -1.3400 nb         1 S41      -0.621000
     31 C31          2.5420     2.5530    -1.2780 ca         1 S41       0.249900
     32 C32          5.2370     4.8880    -0.5600 c3         1 S41      -0.134400
     33 H4          -0.5140    -0.0930     0.5410 ha         1 S41       0.144000
     34 H6          -3.4560     2.9790    -0.1260 ha         1 S41       0.175000
     35 H9          -5.2780    -2.1710     0.0260 ha         1 S41       0.175000
     36 H10         -8.0170     0.3270     0.3830 hc         1 S41       0.062033
     37 H10A        -7.7900     0.2160    -1.3610 hc         1 S41       0.062033
     38 H10B        -7.8210    -1.2530    -0.3810 hc         1 S41       0.062033
     39 HN14         0.3760     1.3460    -0.8590 hn         1 S41       0.324500
     40 H16         -0.8340    -3.0260     2.4880 h4         1 S41       0.044600
     41 H20         -0.7650    -2.3090    -1.7420 h4         1 S41       0.044600
     42 H24          5.4670    -3.6530    -1.5370 h1         1 S41       0.044700
     43 H24A         5.8970    -3.3820     0.1560 h1         1 S41       0.044700
     44 H24B         5.1770    -4.9210    -0.3380 h1         1 S41       0.044700
     45 H25          2.8610    -1.4500    -0.0410 h1         1 S41       0.044700
     46 H25A         4.6020    -1.3740    -0.2170 h1         1 S41       0.044700
     47 H25B         3.5960    -1.7130    -1.6310 h1         1 S41       0.044700
     48 H28          3.1350     5.2860     1.1810 h4         1 S41       0.034100
     49 H31          2.3620     1.7550    -1.9920 h4         1 S41       0.024100
     50 H32          6.0730     4.1960    -0.4560 hc         1 S41       0.052700
     51 H32A         5.3430     5.3830    -1.5270 hc         1 S41       0.052700
     52 H32B         5.3240     5.6460     0.2170 hc         1 S41       0.052700
@<TRIPOS>BOND
     1     1     2 ar  
     2     1     6 ar  
     3     1     7 1   
     4     2     3 ar  
     5     2     9 1   
     6     3     4 ar  
     7     3    12 1   
     8     4     5 ar  
     9     4    33 1   
    10     5     6 ar  
    11     5    11 1   
    12     6    34 1   
    13     7     8 1   
    14     8     9 2   
    15     8    10 1   
    16     9    35 1   
    17    10    36 1   
    18    10    37 1   
    19    10    38 1   
    20    11    13 2   
    21    11    14 1   
    22    12    15 1   
    23    14    26 1   
    24    14    39 1   
    25    15    16 ar  
    26    15    20 ar  
    27    16    17 ar  
    28    16    40 1   
    29    17    18 ar  
    30    18    19 ar  
    31    18    21 1   
    32    19    20 ar  
    33    20    41 1   
    34    21    22 1   
    35    21    23 2   
    36    22    24 1   
    37    22    25 1   
    38    24    42 1   
    39    24    43 1   
    40    24    44 1   
    41    25    45 1   
    42    25    46 1   
    43    25    47 1   
    44    26    27 ar  
    45    26    31 ar  
    46    27    28 ar  
    47    28    29 ar  
    48    28    48 1   
    49    29    30 ar  
    50    29    32 1   
    51    30    31 ar  
    52    31    49 1   
    53    32    50 1   
    54    32    51 1   
    55    32    52 1   
@<TRIPOS>SUBSTRUCTURE
     1 S41         1 TEMP              0 ****  ****    0 ROOT
