@<TRIPOS>MOLECULE
S42
   57    59     1     0     0
SMALL
abcg2


@<TRIPOS>ATOM
      1 N01         -4.4670     1.5450    -0.2800 nb         1 S42      -0.751000
      2 C02         -5.5960     2.1630    -0.6090 ca         1 S42       0.597900
      3 N02         -5.4950     3.2280    -1.4590 nv         1 S42      -1.051900
      4 C03         -6.8410     1.7860    -0.0770 ca         1 S42      -0.232000
      5 C04         -6.8990     0.7330     0.8140 ca         1 S42       0.000700
      6 C05         -5.7020     0.0950     1.1580 ca         1 S42      -0.215000
      7 C06         -4.5190     0.5330     0.5890 ca         1 S42       0.397300
      8 C07         -8.2050     0.2650     1.3800 c3         1 S42      -0.052800
      9 C08         -3.2140    -0.1450     0.8910 c3         1 S42      -0.126700
     10 C09         -2.7770    -1.0730    -0.2520 c3         1 S42      -0.027100
     11 C11         -1.4580    -1.7300     0.0470 ca         1 S42      -0.079300
     12 C12         -1.4050    -2.9560     0.7020 ca         1 S42      -0.110000
     13 C13         -0.1810    -3.5300     1.0200 ca         1 S42      -0.112000
     14 C14          1.0010    -2.8840     0.6890 ca         1 S42      -0.115000
     15 C15          0.9750    -1.6540     0.0330 ca         1 S42      -0.078300
     16 C16         -0.2600    -1.0970    -0.2800 ca         1 S42      -0.095000
     17 N21          5.4170    -0.2390     0.7260 nb         1 S42      -0.752000
     18 C22          6.4880     0.5080     0.4680 ca         1 S42       0.594900
     19 N22          7.7070    -0.1010     0.5820 nv         1 S42      -1.052900
     20 C23          6.3950     1.8700     0.1420 ca         1 S42      -0.232000
     21 C24          5.1470     2.4620     0.0860 ca         1 S42       0.001700
     22 C25          4.0310     1.6690     0.3630 ca         1 S42      -0.212000
     23 C26          4.2130     0.3310     0.6730 ca         1 S42       0.397300
     24 C28          3.0260    -0.5480     0.9490 c3         1 S42      -0.127700
     25 C29          2.2550    -0.9350    -0.3250 c3         1 S42      -0.012400
     26 C30          3.1140    -1.7630    -1.2810 c3         1 S42       0.156800
     27 N31          2.3910    -2.0460    -2.5100 n8         1 S42      -1.001200
     28 HN02        -4.6500     3.2740    -2.0060 hn         1 S42       0.466500
     29 HN0A        -6.3220     3.4940    -1.9680 hn         1 S42       0.466500
     30 H03         -7.7390     2.3190    -0.3670 ha         1 S42       0.118000
     31 H05         -5.6980    -0.7300     1.8590 ha         1 S42       0.121000
     32 H07         -8.5490    -0.6240     0.8490 hc         1 S42       0.046367
     33 H07A        -8.1080    -0.0060     2.4310 hc         1 S42       0.046367
     34 H07B        -8.9800     1.0240     1.2900 hc         1 S42       0.046367
     35 H08         -2.4420     0.6120     1.0500 hc         1 S42       0.057700
     36 H08A        -3.2950    -0.7240     1.8130 hc         1 S42       0.057700
     37 H09         -3.5460    -1.8340    -0.4080 hc         1 S42       0.053700
     38 H09A        -2.7100    -0.4930    -1.1750 hc         1 S42       0.053700
     39 H12         -2.3260    -3.4650     0.9630 ha         1 S42       0.110000
     40 H13         -0.1490    -4.4860     1.5260 ha         1 S42       0.111000
     41 H14          1.9480    -3.3460     0.9430 ha         1 S42       0.112000
     42 H16         -0.2910    -0.1420    -0.7950 ha         1 S42       0.117000
     43 HN22         7.7020    -1.1060     0.5330 hn         1 S42       0.465500
     44 HN2A         8.4810     0.3260     0.1010 hn         1 S42       0.465500
     45 H23          7.2920     2.4440    -0.0570 ha         1 S42       0.119000
     46 H25          3.0330     2.0910     0.3390 ha         1 S42       0.124000
     47 H27          4.7290     4.0070    -1.3350 hc         1 S42       0.047033
     48 H27A         4.1880     4.3730     0.2940 hc         1 S42       0.047033
     49 H27B         5.9060     4.4680    -0.1120 hc         1 S42       0.047033
     50 H28          3.3630    -1.4480     1.4680 hc         1 S42       0.061700
     51 H28A         2.3390    -0.0280     1.6210 hc         1 S42       0.061700
     52 H29          1.9800    -0.0140    -0.8510 hc         1 S42       0.067700
     53 H30          4.0090    -1.1920    -1.5390 h1         1 S42       0.033700
     54 H30A         3.4680    -2.6620    -0.7560 h1         1 S42       0.033700
     55 HN31         2.9970    -2.5460    -3.1470 hn         1 S42       0.393500
     56 HN3A         1.6210    -2.6740    -2.3150 hn         1 S42       0.393500
     57 C27          4.9890     3.9060    -0.2800 c3         1 S42      -0.053800
@<TRIPOS>BOND
     1     1     2 ar  
     2     1     7 ar  
     3     2     3 1   
     4     2     4 ar  
     5     3    28 1   
     6     3    29 1   
     7     4     5 ar  
     8     4    30 1   
     9     5     6 ar  
    10     5     8 1   
    11     6     7 ar  
    12     6    31 1   
    13     7     9 1   
    14     8    32 1   
    15     8    33 1   
    16     8    34 1   
    17     9    10 1   
    18     9    35 1   
    19     9    36 1   
    20    10    11 1   
    21    10    37 1   
    22    10    38 1   
    23    11    12 ar  
    24    11    16 ar  
    25    12    13 ar  
    26    12    39 1   
    27    13    14 ar  
    28    13    40 1   
    29    14    15 ar  
    30    14    41 1   
    31    15    16 ar  
    32    15    25 1   
    33    16    42 1   
    34    17    18 ar  
    35    17    23 ar  
    36    18    19 1   
    37    18    20 ar  
    38    19    43 1   
    39    19    44 1   
    40    20    21 ar  
    41    20    45 1   
    42    21    22 ar  
    43    21    57 1   
    44    22    23 ar  
    45    22    46 1   
    46    23    24 1   
    47    24    25 1   
    48    24    50 1   
    49    24    51 1   
    50    25    26 1   
    51    25    52 1   
    52    26    27 1   
    53    26    53 1   
    54    26    54 1   
    55    27    55 1   
    56    27    56 1   
    57    47    57 1   
    58    48    57 1   
    59    49    57 1   
@<TRIPOS>SUBSTRUCTURE
     1 S42         1 TEMP              0 ****  ****    0 ROOT
