@<TRIPOS>MOLECULE
S42
   57    59     1     0     0
SMALL
No Charge or Current Charge


@<TRIPOS>ATOM
      1 N01         -4.5510     1.8700     0.0860 nb         1 S42      -0.751000
      2 C02         -5.7210     2.4310    -0.1790 ca         1 S42       0.597900
      3 N02         -5.5650     3.6450    -0.7120 nv         1 S42      -1.051900
      4 C03         -6.9670     1.8410     0.0460 ca         1 S42      -0.232000
      5 C04         -7.0050     0.5550     0.6040 ca         1 S42       0.000700
      6 C05         -5.7750    -0.0570     0.8950 ca         1 S42      -0.215000
      7 C06         -4.5760     0.6300     0.6240 ca         1 S42       0.397300
      8 C07         -8.3220    -0.1510     0.8760 c3         1 S42      -0.052800
      9 C08         -3.2300    -0.0130     0.9210 c3         1 S42      -0.126700
     10 C09         -2.8030    -1.0200    -0.1690 c3         1 S42      -0.027100
     11 C11         -1.4680    -1.6790     0.1520 ca         1 S42      -0.079300
     12 C12         -1.4290    -2.9110     0.8300 ca         1 S42      -0.110000
     13 C13         -0.1970    -3.5120     1.1320 ca         1 S42      -0.112000
     14 C14          1.0040    -2.8850     0.7590 ca         1 S42      -0.115000
     15 C15          0.9820    -1.6500     0.0770 ca         1 S42      -0.078300
     16 C16         -0.2620    -1.0530    -0.2180 ca         1 S42      -0.095000
     17 N21          5.4810    -0.1690     0.8280 nb         1 S42      -0.752000
     18 C22          6.5410     0.5750     0.5490 ca         1 S42       0.594900
     19 N22          7.6730    -0.0890     0.7900 nv         1 S42      -1.052900
     20 C23          6.5010     1.8790     0.0520 ca         1 S42      -0.232000
     21 C24          5.2490     2.4710    -0.1680 ca         1 S42       0.001700
     22 C25          4.1120     1.7000     0.1240 ca         1 S42      -0.212000
     23 C26          4.2690     0.3900     0.6170 ca         1 S42       0.397300
     24 C28          3.0550    -0.4720     0.9360 c3         1 S42      -0.127700
     25 C29          2.2860    -0.9500    -0.3250 c3         1 S42      -0.012400
     26 C30          3.1710    -1.8350    -1.2480 c3         1 S42       0.156800
     27 N31          2.4560    -2.2680    -2.4670 n8         1 S42      -1.001200
     28 HN02        -4.6270     3.8470    -1.0360 hn         1 S42       0.466500
     29 HN0A        -6.3280     4.0180    -1.2650 hn         1 S42       0.466500
     30 H03         -7.8810     2.3700    -0.2050 ha         1 S42       0.118000
     31 H05         -5.7430    -1.0550     1.3240 ha         1 S42       0.121000
     32 H07         -8.6180    -0.7680     0.0190 hc         1 S42       0.046367
     33 H07A        -8.2490    -0.8060     1.7520 hc         1 S42       0.046367
     34 H07B        -9.1290     0.5670     1.0670 hc         1 S42       0.046367
     35 H08         -2.4530     0.7540     1.0240 hc         1 S42       0.057700
     36 H08A        -3.2780    -0.5310     1.8860 hc         1 S42       0.057700
     37 H09         -3.5830    -1.7830    -0.2810 hc         1 S42       0.053700
     38 H09A        -2.7440    -0.5010    -1.1340 hc         1 S42       0.053700
     39 H12         -2.3540    -3.4020     1.1260 ha         1 S42       0.110000
     40 H13         -0.1710    -4.4640     1.6590 ha         1 S42       0.111000
     41 H14          1.9500    -3.3600     1.0050 ha         1 S42       0.112000
     42 H16         -0.2940    -0.0980    -0.7370 ha         1 S42       0.117000
     43 HN22         7.5600    -1.0870     0.9190 hn         1 S42       0.465500
     44 HN2A         8.5110     0.2160     0.3070 hn         1 S42       0.465500
     45 H23          7.4200     2.4180    -0.1560 ha         1 S42       0.119000
     46 H25          3.1160     2.1070    -0.0280 ha         1 S42       0.124000
     47 H27          5.0490     3.8810    -1.8000 hc         1 S42       0.047033
     48 H27A         4.2350     4.3870    -0.3100 hc         1 S42       0.047033
     49 H27B         5.9960     4.4950    -0.4330 hc         1 S42       0.047033
     50 H28          3.3500    -1.3430     1.5330 hc         1 S42       0.061700
     51 H28A         2.3690     0.1050     1.5660 hc         1 S42       0.061700
     52 H29          2.0360    -0.0530    -0.9050 hc         1 S42       0.067700
     53 H30          4.0680    -1.2780    -1.5540 h1         1 S42       0.033700
     54 H30A         3.4970    -2.7280    -0.6980 h1         1 S42       0.033700
     55 HN31         3.0240    -2.9690    -2.9580 hn         1 S42       0.393500
     56 HN3A         1.6180    -2.7880    -2.1810 hn         1 S42       0.393500
     57 C27          5.1260     3.8860    -0.7070 c3         1 S42      -0.053800
@<TRIPOS>BOND
     1     1     2 ar  
     2     1     7 ar  
     3     2     3 1   
     4     2     4 ar  
     5     3    28 1   
     6     3    29 1   
     7     4     5 ar  
     8     4    30 1   
     9     5     6 ar  
    10     5     8 1   
    11     6     7 ar  
    12     6    31 1   
    13     7     9 1   
    14     8    32 1   
    15     8    33 1   
    16     8    34 1   
    17     9    10 1   
    18     9    35 1   
    19     9    36 1   
    20    10    11 1   
    21    10    37 1   
    22    10    38 1   
    23    11    12 ar  
    24    11    16 ar  
    25    12    13 ar  
    26    12    39 1   
    27    13    14 ar  
    28    13    40 1   
    29    14    15 ar  
    30    14    41 1   
    31    15    16 ar  
    32    15    25 1   
    33    16    42 1   
    34    17    18 ar  
    35    17    23 ar  
    36    18    19 1   
    37    18    20 ar  
    38    19    43 1   
    39    19    44 1   
    40    20    21 ar  
    41    20    45 1   
    42    21    22 ar  
    43    21    57 1   
    44    22    23 ar  
    45    22    46 1   
    46    23    24 1   
    47    24    25 1   
    48    24    50 1   
    49    24    51 1   
    50    25    26 1   
    51    25    52 1   
    52    26    27 1   
    53    26    53 1   
    54    26    54 1   
    55    27    55 1   
    56    27    56 1   
    57    47    57 1   
    58    48    57 1   
    59    49    57 1   
@<TRIPOS>SUBSTRUCTURE
     1 S42         1 TEMP              0 ****  ****    0 ROOT
