@<TRIPOS>MOLECULE
S43
   81    82     1     0     0
SMALL
abcg2


@<TRIPOS>ATOM
      1 O2           5.7410    18.9640     7.9370 o          1 S43      -0.605100
      2 C7           6.0340    18.2420     8.8880 c          1 S43       0.596100
      3 C3           7.3160    18.4730     9.7090 c3         1 S43       0.043700
      4 C4           7.1470    19.5640    10.7920 c3         1 S43      -0.066700
      5 C5           6.1850    19.1080    11.8890 c3         1 S43      -0.090100
      6 C6           6.7370    20.9300    10.2410 c3         1 S43      -0.090100
      7 N            8.4200    18.8110     8.8330 ns         1 S43      -0.493900
      8 C2           8.9350    17.9360     7.9490 c          1 S43       0.593100
      9 O3           8.4790    16.7990     7.8180 o          1 S43      -0.597100
     10 C1          10.1320    18.4280     7.1610 c3         1 S43      -0.153400
     11 C           11.4440    17.8710     7.7220 c3         1 S43       0.167300
     12 O           12.4870    18.7130     7.2190 oh         1 S43      -0.669000
     13 C19         11.6840    16.3980     7.3370 c3         1 S43       0.093700
     14 C21         12.8450    15.7840     8.1350 c3         1 S43      -0.046100
     15 C22         13.0090    14.3070     7.8820 ca         1 S43      -0.084300
     16 C23         12.0170    13.4060     8.2770 ca         1 S43      -0.097500
     17 C24         12.1490    12.0460     8.0280 ca         1 S43      -0.107500
     18 C25         13.2820    11.5610     7.3770 ca         1 S43      -0.107000
     19 C26         14.2770    12.4480     6.9810 ca         1 S43      -0.107500
     20 C27         14.1380    13.8100     7.2340 ca         1 S43      -0.097500
     21 N2          11.9270    16.2940     5.9110 ns         1 S43      -0.495900
     22 N1           5.2690    17.2270     9.3210 ns         1 S43      -0.497900
     23 C8           4.0370    16.7830     8.6840 c3         1 S43       0.099000
     24 C9           4.2280    15.4450     7.9660 c3         1 S43      -0.093400
     25 C10          5.1740    15.5180     6.7670 c3         1 S43      -0.081400
     26 C11          4.5430    16.1070     5.5040 c3         1 S43      -0.071400
     27 C12          5.5710    16.3280     4.3860 c3         1 S43      -0.072400
     28 C13          6.3010    17.6840     4.5010 c3         1 S43      -0.075400
     29 C14          7.8140    17.6270     4.3090 c3         1 S43      -0.079400
     30 C15          8.2840    17.1070     2.9500 c3         1 S43      -0.074400
     31 C16          9.7750    17.3870     2.7080 c3         1 S43      -0.075400
     32 C17         10.5000    16.3200     1.8790 c3         1 S43      -0.094400
     33 C18         10.9740    15.1290     2.7040 c3         1 S43       0.176600
     34 O1          11.7740    15.5810     3.8210 os         1 S43      -0.479100
     35 C20         11.2340    15.5100     5.0640 c          1 S43       0.641100
     36 O4          10.2620    14.8300     5.3510 o          1 S43      -0.526000
     37 H1           7.5660    17.5400    10.2200 h1         1 S43       0.060700
     38 H2           8.1410    19.6620    11.2400 hc         1 S43       0.046700
     39 H3           6.1680    19.8410    12.6970 hc         1 S43       0.041533
     40 H4           5.1660    19.0080    11.5080 hc         1 S43       0.041533
     41 H5           6.4860    18.1450    12.3070 hc         1 S43       0.041533
     42 H6           6.7470    21.6660    11.0470 hc         1 S43       0.041533
     43 H7           7.4120    21.2870     9.4610 hc         1 S43       0.041533
     44 H8           5.7300    20.8980     9.8230 hc         1 S43       0.041533
     45 H9           8.8220    19.7320     8.8940 hn         1 S43       0.322500
     46 H10         10.1870    19.5150     7.1910 hc         1 S43       0.083200
     47 H11         10.0100    18.1220     6.1220 hc         1 S43       0.083200
     48 H12         11.4210    17.9360     8.8150 h1         1 S43       0.035700
     49 H13         13.3000    18.5330     7.7070 ho         1 S43       0.445000
     50 H14         10.7680    15.8490     7.5480 h1         1 S43       0.113700
     51 H15         13.7730    16.2970     7.8720 hc         1 S43       0.046200
     52 H16         12.6640    15.9640     9.1980 hc         1 S43       0.046200
     53 H17         11.1320    13.7750     8.7830 ha         1 S43       0.110500
     54 H18         11.3700    11.3620     8.3410 ha         1 S43       0.112500
     55 H19         13.3860    10.5010     7.1810 ha         1 S43       0.112000
     56 H20         15.1610    12.0820     6.4740 ha         1 S43       0.112500
     57 H21         14.9150    14.4980     6.9210 ha         1 S43       0.110500
     58 H22         12.7050    16.8110     5.5310 hn         1 S43       0.326500
     59 H23          5.6260    16.6540    10.0700 hn         1 S43       0.307500
     60 H24          3.7270    17.5660     7.9950 h1         1 S43       0.056200
     61 H25          3.2680    16.6860     9.4530 h1         1 S43       0.056200
     62 H26          3.2470    15.0740     7.6500 hc         1 S43       0.039200
     63 H27          4.6090    14.7260     8.6980 hc         1 S43       0.039200
     64 H28          5.5340    14.5130     6.5270 hc         1 S43       0.054700
     65 H29          6.0590    16.0960     7.0460 hc         1 S43       0.054700
     66 H30          4.0620    17.0640     5.7340 hc         1 S43       0.033200
     67 H31          3.7440    15.4380     5.1670 hc         1 S43       0.033200
     68 H32          5.0800    16.2530     3.4130 hc         1 S43       0.037700
     69 H33          6.3010    15.5130     4.4150 hc         1 S43       0.037700
     70 H34          5.8780    18.3830     3.7720 hc         1 S43       0.045200
     71 H35          6.0980    18.1130     5.4860 hc         1 S43       0.045200
     72 H36          8.2500    16.9960     5.0890 hc         1 S43       0.042700
     73 H37          8.2280    18.6290     4.4690 hc         1 S43       0.042700
     74 H38          7.6910    17.5620     2.1500 hc         1 S43       0.037200
     75 H39          8.0960    16.0300     2.8920 hc         1 S43       0.037200
     76 H40         10.2750    17.4840     3.6740 hc         1 S43       0.039700
     77 H41          9.8910    18.3610     2.2280 hc         1 S43       0.039700
     78 H42          9.8250    15.9220     1.1140 hc         1 S43       0.047200
     79 H43         11.3500    16.7550     1.3480 hc         1 S43       0.047200
     80 H44         10.1400    14.5400     3.0810 h1         1 S43       0.063200
     81 H45         11.6260    14.4850     2.1160 h1         1 S43       0.063200
@<TRIPOS>BOND
     1     1     2 2   
     2     2     3 1   
     3     2    22 1   
     4     3     4 1   
     5     3     7 1   
     6     3    37 1   
     7     4     5 1   
     8     4     6 1   
     9     4    38 1   
    10     5    39 1   
    11     5    40 1   
    12     5    41 1   
    13     6    42 1   
    14     6    43 1   
    15     6    44 1   
    16     7     8 1   
    17     7    45 1   
    18     8     9 2   
    19     8    10 1   
    20    10    11 1   
    21    10    46 1   
    22    10    47 1   
    23    11    12 1   
    24    11    13 1   
    25    11    48 1   
    26    12    49 1   
    27    13    14 1   
    28    13    21 1   
    29    13    50 1   
    30    14    15 1   
    31    14    51 1   
    32    14    52 1   
    33    15    16 ar  
    34    15    20 ar  
    35    16    17 ar  
    36    16    53 1   
    37    17    18 ar  
    38    17    54 1   
    39    18    19 ar  
    40    18    55 1   
    41    19    20 ar  
    42    19    56 1   
    43    20    57 1   
    44    21    35 1   
    45    21    58 1   
    46    22    23 1   
    47    22    59 1   
    48    23    24 1   
    49    23    60 1   
    50    23    61 1   
    51    24    25 1   
    52    24    62 1   
    53    24    63 1   
    54    25    26 1   
    55    25    64 1   
    56    25    65 1   
    57    26    27 1   
    58    26    66 1   
    59    26    67 1   
    60    27    28 1   
    61    27    68 1   
    62    27    69 1   
    63    28    29 1   
    64    28    70 1   
    65    28    71 1   
    66    29    30 1   
    67    29    72 1   
    68    29    73 1   
    69    30    31 1   
    70    30    74 1   
    71    30    75 1   
    72    31    32 1   
    73    31    76 1   
    74    31    77 1   
    75    32    33 1   
    76    32    78 1   
    77    32    79 1   
    78    33    34 1   
    79    33    80 1   
    80    33    81 1   
    81    34    35 1   
    82    35    36 2   
@<TRIPOS>SUBSTRUCTURE
     1 S43         1 TEMP              0 ****  ****    0 ROOT
