@<TRIPOS>MOLECULE
S43
   81    82     1     0     0
SMALL
No Charge or Current Charge


@<TRIPOS>ATOM
      1 O2           5.7970    19.0790     7.7400 o          1 S43      -0.605100
      2 C7           5.9480    18.4900     8.8040 c          1 S43       0.596100
      3 C3           7.2090    18.6620     9.7100 c3         1 S43       0.043700
      4 C4           7.0440    19.7620    10.8040 c3         1 S43      -0.066700
      5 C5           5.9970    19.3770    11.8760 c3         1 S43      -0.090100
      6 C6           6.7510    21.1690    10.2250 c3         1 S43      -0.090100
      7 N            8.4130    18.9260     8.8880 ns         1 S43      -0.493900
      8 C2           9.0430    17.9730     8.1170 c          1 S43       0.593100
      9 O3           8.6190    16.8310     8.0370 o          1 S43      -0.597100
     10 C1          10.2800    18.4530     7.3550 c3         1 S43      -0.153400
     11 C           11.5700    17.7780     7.8770 c3         1 S43       0.167300
     12 O           12.6860    18.5980     7.4920 oh         1 S43      -0.669000
     13 C19         11.7710    16.3110     7.3650 c3         1 S43       0.093700
     14 C21         12.8550    15.5390     8.1580 c3         1 S43      -0.046100
     15 C22         12.9680    14.0800     7.7290 ca         1 S43      -0.084300
     16 C23         11.9850    13.1500     8.1190 ca         1 S43      -0.097500
     17 C24         12.0800    11.8060     7.7170 ca         1 S43      -0.107500
     18 C25         13.1580    11.3840     6.9210 ca         1 S43      -0.107000
     19 C26         14.1420    12.3070     6.5290 ca         1 S43      -0.107500
     20 C27         14.0480    13.6510     6.9310 ca         1 S43      -0.097500
     21 N2          12.0680    16.2660     5.9230 ns         1 S43      -0.495900
     22 N1           5.0120    17.5920     9.2800 ns         1 S43      -0.497900
     23 C8           3.8610    17.0830     8.5240 c3         1 S43       0.099000
     24 C9           4.0580    15.5960     8.1460 c3         1 S43      -0.093400
     25 C10          5.1860    15.3500     7.1140 c3         1 S43      -0.081400
     26 C11          4.7430    15.4850     5.6360 c3         1 S43      -0.071400
     27 C12          5.9260    15.7860     4.6840 c3         1 S43      -0.072400
     28 C13          6.1790    17.3040     4.5050 c3         1 S43      -0.075400
     29 C14          7.6460    17.7050     4.2450 c3         1 S43      -0.079400
     30 C15          8.3350    16.9920     3.0610 c3         1 S43      -0.074400
     31 C16          9.7260    17.5970     2.7560 c3         1 S43      -0.075400
     32 C17         10.6460    16.7040     1.8870 c3         1 S43      -0.094400
     33 C18         11.1860    15.4200     2.5690 c3         1 S43       0.176600
     34 O1          11.9070    15.7970     3.7620 os         1 S43      -0.479100
     35 C20         11.3080    15.6380     4.9790 c          1 S43       0.641100
     36 O4          10.2680    15.0390     5.1980 o          1 S43      -0.526000
     37 H1           7.3700    17.7030    10.2200 h1         1 S43       0.060700
     38 H2           8.0060    19.8280    11.3290 hc         1 S43       0.046700
     39 H3           6.0090    20.1000    12.7010 hc         1 S43       0.041533
     40 H4           4.9840    19.3630    11.4560 hc         1 S43       0.041533
     41 H5           6.2130    18.3870    12.2950 hc         1 S43       0.041533
     42 H6           6.7310    21.9170    11.0270 hc         1 S43       0.041533
     43 H7           7.5220    21.4740     9.5070 hc         1 S43       0.041533
     44 H8           5.7800    21.1930     9.7170 hc         1 S43       0.041533
     45 H9           8.8060    19.8590     8.8830 hn         1 S43       0.322500
     46 H10         10.3720    19.5390     7.4690 hc         1 S43       0.083200
     47 H11         10.1590    18.2230     6.2920 hc         1 S43       0.083200
     48 H12         11.5040    17.7540     8.9740 h1         1 S43       0.035700
     49 H13         13.4620    18.3000     8.0140 ho         1 S43       0.445000
     50 H14         10.8290    15.7740     7.5360 h1         1 S43       0.113700
     51 H15         13.8220    16.0440     8.0430 hc         1 S43       0.046200
     52 H16         12.6140    15.5860     9.2280 hc         1 S43       0.046200
     53 H17         11.1450    13.4680     8.7320 ha         1 S43       0.110500
     54 H18         11.3160    11.0930     8.0200 ha         1 S43       0.112500
     55 H19         13.2310    10.3450     6.6090 ha         1 S43       0.112000
     56 H20         14.9770    11.9820     5.9120 ha         1 S43       0.112500
     57 H21         14.8120    14.3590     6.6180 ha         1 S43       0.110500
     58 H22         12.8860    16.7510     5.5800 hn         1 S43       0.326500
     59 H23          5.2170    17.1610    10.1740 hn         1 S43       0.307500
     60 H24          3.7000    17.6820     7.6180 h1         1 S43       0.056200
     61 H25          2.9670    17.1800     9.1550 h1         1 S43       0.056200
     62 H26          3.1150    15.1910     7.7590 hc         1 S43       0.039200
     63 H27          4.2820    15.0330     9.0600 hc         1 S43       0.039200
     64 H28          5.5850    14.3390     7.2590 hc         1 S43       0.054700
     65 H29          6.0210    16.0310     7.3150 hc         1 S43       0.054700
     66 H30          3.9820    16.2690     5.5340 hc         1 S43       0.033200
     67 H31          4.2620    14.5470     5.3310 hc         1 S43       0.033200
     68 H32          5.7220    15.3470     3.6990 hc         1 S43       0.037700
     69 H33          6.8280    15.2900     5.0640 hc         1 S43       0.037700
     70 H34          5.5490    17.6750     3.6870 hc         1 S43       0.045200
     71 H35          5.8500    17.8340     5.4050 hc         1 S43       0.045200
     72 H36          8.2230    17.5040     5.1550 hc         1 S43       0.042700
     73 H37          7.6840    18.7890     4.0850 hc         1 S43       0.042700
     74 H38          7.7060    17.0650     2.1650 hc         1 S43       0.037200
     75 H39          8.4330    15.9260     3.2950 hc         1 S43       0.037200
     76 H40         10.2390    17.8410     3.6940 hc         1 S43       0.039700
     77 H41          9.5780    18.5540     2.2410 hc         1 S43       0.039700
     78 H42         10.1120    16.4210     0.9720 hc         1 S43       0.047200
     79 H43         11.5060    17.3040     1.5650 hc         1 S43       0.047200
     80 H44         10.3670    14.7170     2.7750 h1         1 S43       0.063200
     81 H45         11.8670    14.9210     1.8670 h1         1 S43       0.063200
@<TRIPOS>BOND
     1     1     2 2   
     2     2     3 1   
     3     2    22 1   
     4     3     4 1   
     5     3     7 1   
     6     3    37 1   
     7     4     5 1   
     8     4     6 1   
     9     4    38 1   
    10     5    39 1   
    11     5    40 1   
    12     5    41 1   
    13     6    42 1   
    14     6    43 1   
    15     6    44 1   
    16     7     8 1   
    17     7    45 1   
    18     8     9 2   
    19     8    10 1   
    20    10    11 1   
    21    10    46 1   
    22    10    47 1   
    23    11    12 1   
    24    11    13 1   
    25    11    48 1   
    26    12    49 1   
    27    13    14 1   
    28    13    21 1   
    29    13    50 1   
    30    14    15 1   
    31    14    51 1   
    32    14    52 1   
    33    15    16 ar  
    34    15    20 ar  
    35    16    17 ar  
    36    16    53 1   
    37    17    18 ar  
    38    17    54 1   
    39    18    19 ar  
    40    18    55 1   
    41    19    20 ar  
    42    19    56 1   
    43    20    57 1   
    44    21    35 1   
    45    21    58 1   
    46    22    23 1   
    47    22    59 1   
    48    23    24 1   
    49    23    60 1   
    50    23    61 1   
    51    24    25 1   
    52    24    62 1   
    53    24    63 1   
    54    25    26 1   
    55    25    64 1   
    56    25    65 1   
    57    26    27 1   
    58    26    66 1   
    59    26    67 1   
    60    27    28 1   
    61    27    68 1   
    62    27    69 1   
    63    28    29 1   
    64    28    70 1   
    65    28    71 1   
    66    29    30 1   
    67    29    72 1   
    68    29    73 1   
    69    30    31 1   
    70    30    74 1   
    71    30    75 1   
    72    31    32 1   
    73    31    76 1   
    74    31    77 1   
    75    32    33 1   
    76    32    78 1   
    77    32    79 1   
    78    33    34 1   
    79    33    80 1   
    80    33    81 1   
    81    34    35 1   
    82    35    36 2   
@<TRIPOS>SUBSTRUCTURE
     1 S43         1 TEMP              0 ****  ****    0 ROOT
