@<TRIPOS>MOLECULE
S44
   77    81     1     0     0
SMALL
bcc


@<TRIPOS>ATOM
      1 O33          4.3280     3.3710     1.7660 o          1 S44      -0.841800
      2 O34          6.2760     2.4860     2.3810 o          1 S44      -0.841800
      3 C1           5.4670     2.9180     1.5320 c          1 S44       0.926600
      4 C2           5.9500     2.9230     0.0690 c3         1 S44      -0.187700
      5 C3           7.0680     3.9610    -0.0930 c3         1 S44      -0.059400
      6 C4           7.4700     4.2290    -1.5380 c3         1 S44      -0.088100
      7 C5           6.4110     1.5260    -0.3640 c3         1 S44      -0.007100
      8 C6           5.3210     0.4950    -0.2800 ca         1 S44      -0.073300
      9 C7           4.4230     0.3170    -1.3330 ca         1 S44      -0.087000
     10 C8           3.3890    -0.6040    -1.2850 ca         1 S44      -0.171300
     11 C9           3.2340    -1.3880    -0.1310 ca         1 S44       0.137100
     12 C10          4.1160    -1.2280     0.9310 ca         1 S44      -0.221000
     13 C11          5.1430    -0.2930     0.8490 ca         1 S44      -0.054000
     14 O37          2.2170    -2.2710    -0.1470 os         1 S44      -0.331900
     15 C30          1.9240    -3.0180     1.0200 c3         1 S44       0.145400
     16 C31          0.6230    -3.7610     0.7960 c3         1 S44      -0.085400
     17 C32          0.2770    -4.6350     1.9940 c3         1 S44      -0.087100
     18 C12          2.4610    -0.7730    -2.4590 c3         1 S44       0.165300
     19 N35          1.0850    -0.4900    -2.1140 ns         1 S44      -0.553900
     20 C13          0.0900    -1.3900    -2.1950 c          1 S44       0.689700
     21 O36          0.1950    -2.4620    -2.7760 o          1 S44      -0.620100
     22 C14         -1.1950    -0.9920    -1.5470 ca         1 S44      -0.147600
     23 C15         -2.3880    -1.5100    -2.0450 ca         1 S44      -0.091500
     24 C16         -3.5970    -1.1780    -1.4630 ca         1 S44      -0.142000
     25 C17         -3.6690    -0.3320    -0.3500 ca         1 S44      -0.055300
     26 C18         -2.4670     0.1570     0.1550 ca         1 S44      -0.142000
     27 C19         -1.2500    -0.1640    -0.4320 ca         1 S44      -0.091500
     28 C20         -5.0200     0.0070     0.2520 c6         1 S44       0.002300
     29 C21         -4.9140     0.9600     1.4530 c6         1 S44      -0.062400
     30 C22         -6.2990     1.2750     2.0220 c6         1 S44      -0.059700
     31 C23         -6.9650    -0.0220     2.4840 c6         1 S44      -0.067400
     32 C24         -7.1030    -0.9700     1.2930 c6         1 S44      -0.059700
     33 C25         -5.7160    -1.2840     0.7290 c6         1 S44      -0.062400
     34 C26         -5.9070     0.6860    -0.8120 c6         1 S44      -0.062400
     35 C27         -7.2950     0.9920    -0.2460 c6         1 S44      -0.059700
     36 C28         -7.9570    -0.3110     0.2070 c6         1 S44      -0.067400
     37 C29         -7.1610     1.9390     0.9470 c6         1 S44      -0.067400
     38 H2           5.1130     3.2220    -0.5740 hc         1 S44       0.032700
     39 H3           6.7390     4.9040     0.3550 hc         1 S44       0.040700
     40 H3A          7.9410     3.6390     0.4810 hc         1 S44       0.040700
     41 H4           8.2260     5.0150    -1.5950 hc         1 S44       0.012367
     42 H4A          7.8880     3.3460    -2.0220 hc         1 S44       0.012367
     43 H4B          6.6130     4.5550    -2.1320 hc         1 S44       0.012367
     44 H5           6.7820     1.5650    -1.3910 hc         1 S44       0.031200
     45 H5A          7.2560     1.2260     0.2610 hc         1 S44       0.031200
     46 H7           4.5360     0.9180    -2.2300 ha         1 S44       0.120000
     47 H10          4.0300    -1.8280     1.8280 ha         1 S44       0.125000
     48 H11          5.8140    -0.1750     1.6910 ha         1 S44       0.159000
     49 H30          2.7360    -3.7230     1.2350 h1         1 S44       0.029700
     50 H30A         1.8280    -2.3520     1.8860 h1         1 S44       0.029700
     51 H31         -0.1770    -3.0380     0.6180 hc         1 S44       0.057700
     52 H31A         0.7010    -4.3750    -0.1040 hc         1 S44       0.057700
     53 H32         -0.6760    -5.1410     1.8440 hc         1 S44       0.028700
     54 H32A         1.0350    -5.4020     2.1600 hc         1 S44       0.028700
     55 H32B         0.1960    -4.0450     2.9090 hc         1 S44       0.028700
     56 H12          2.7830    -0.1120    -3.2670 h1         1 S44       0.054200
     57 H12A         2.5030    -1.7900    -2.8490 h1         1 S44       0.054200
     58 HN35         0.8980     0.4070    -1.6960 hn         1 S44       0.317500
     59 H15         -2.3730    -2.1720    -2.9010 ha         1 S44       0.147500
     60 H16         -4.5030    -1.5930    -1.8870 ha         1 S44       0.129500
     61 H18         -2.4580     0.7990     1.0250 ha         1 S44       0.129500
     62 H19         -0.3430     0.2240     0.0160 ha         1 S44       0.147500
     63 H21         -4.2950     0.5110     2.2380 hc         1 S44       0.044533
     64 H21A        -4.4200     1.8900     1.1520 hc         1 S44       0.044533
     65 H22         -6.1860     1.9550     2.8710 hc         1 S44       0.045700
     66 H23         -6.3650    -0.4900     3.2710 hc         1 S44       0.037033
     67 H23A        -7.9490     0.1900     2.9170 hc         1 S44       0.037033
     68 H24         -7.5750    -1.9030     1.6150 hc         1 S44       0.045700
     69 H25         -5.8110    -1.9930    -0.0990 hc         1 S44       0.044533
     70 H25A        -5.0990    -1.7710     1.4910 hc         1 S44       0.044533
     71 H26         -5.4220     1.6090    -1.1480 hc         1 S44       0.044533
     72 H26A        -6.0020     0.0450    -1.6930 hc         1 S44       0.044533
     73 H27         -7.9020     1.4630    -1.0250 hc         1 S44       0.045700
     74 H28         -8.0720    -0.9910    -0.6430 hc         1 S44       0.037033
     75 H28A        -8.9630    -0.1100     0.5900 hc         1 S44       0.037033
     76 H29         -8.1490     2.1800     1.3510 hc         1 S44       0.037033
     77 H29A        -6.7100     2.8850     0.6310 hc         1 S44       0.037033
@<TRIPOS>BOND
     1     1     3 1   
     2     2     3 1   
     3     3     4 1   
     4     4     5 1   
     5     4     7 1   
     6     4    38 1   
     7     5     6 1   
     8     5    39 1   
     9     5    40 1   
    10     6    41 1   
    11     6    42 1   
    12     6    43 1   
    13     7     8 1   
    14     7    44 1   
    15     7    45 1   
    16     8     9 ar  
    17     8    13 ar  
    18     9    10 ar  
    19     9    46 1   
    20    10    11 ar  
    21    10    18 1   
    22    11    12 ar  
    23    11    14 1   
    24    12    13 ar  
    25    12    47 1   
    26    13    48 1   
    27    14    15 1   
    28    15    16 1   
    29    15    49 1   
    30    15    50 1   
    31    16    17 1   
    32    16    51 1   
    33    16    52 1   
    34    17    53 1   
    35    17    54 1   
    36    17    55 1   
    37    18    19 1   
    38    18    56 1   
    39    18    57 1   
    40    19    20 1   
    41    19    58 1   
    42    20    21 2   
    43    20    22 1   
    44    22    23 ar  
    45    22    27 ar  
    46    23    24 ar  
    47    23    59 1   
    48    24    25 ar  
    49    24    60 1   
    50    25    26 ar  
    51    25    28 1   
    52    26    27 ar  
    53    26    61 1   
    54    27    62 1   
    55    28    29 1   
    56    28    33 1   
    57    28    34 1   
    58    29    30 1   
    59    29    63 1   
    60    29    64 1   
    61    30    31 1   
    62    30    37 1   
    63    30    65 1   
    64    31    32 1   
    65    31    66 1   
    66    31    67 1   
    67    32    33 1   
    68    32    36 1   
    69    32    68 1   
    70    33    69 1   
    71    33    70 1   
    72    34    35 1   
    73    34    71 1   
    74    34    72 1   
    75    35    36 1   
    76    35    37 1   
    77    35    73 1   
    78    36    74 1   
    79    36    75 1   
    80    37    76 1   
    81    37    77 1   
@<TRIPOS>SUBSTRUCTURE
     1 S44         1 TEMP              0 ****  ****    0 ROOT
