@<TRIPOS>MOLECULE
S44
   77    81     1     0     0
SMALL
No Charge or Current Charge


@<TRIPOS>ATOM
      1 O33          3.6550     3.0370     1.6860 o          1 S44      -0.736500
      2 O34          5.7260     3.0250     2.2660 o          1 S44      -0.736500
      3 C1           4.8470     3.0080     1.4160 c          1 S44       0.716000
      4 C2           5.2580     2.9920    -0.0770 c3         1 S44      -0.187700
      5 C3           6.0220     4.2960    -0.4440 c3         1 S44      -0.059400
      6 C4           6.2150     4.5280    -1.9590 c3         1 S44      -0.088100
      7 C5           6.0500     1.7010    -0.4250 c3         1 S44      -0.007100
      8 C6           5.2430     0.4300    -0.1870 ca         1 S44      -0.073300
      9 C7           4.2720     0.0250    -1.1210 ca         1 S44      -0.069000
     10 C8           3.5220    -1.1500    -0.9160 ca         1 S44      -0.171300
     11 C9           3.7420    -1.9270     0.2410 ca         1 S44       0.137100
     12 C10          4.7170    -1.5210     1.1790 ca         1 S44      -0.203000
     13 C11          5.4620    -0.3490     0.9630 ca         1 S44      -0.036000
     14 O37          2.9850    -3.0680     0.4220 os         1 S44      -0.355100
     15 C30          3.1200    -3.9080     1.5790 c3         1 S44       0.168600
     16 C31          2.1090    -5.0620     1.4360 c3         1 S44      -0.085400
     17 C32          2.1450    -6.0450     2.6220 c3         1 S44      -0.087100
     18 C12          2.4770    -1.5590    -1.9450 c3         1 S44       0.165300
     19 N35          1.1430    -1.1490    -1.5230 ns         1 S44      -0.486900
     20 C13          0.0010    -1.3350    -2.2660 c          1 S44       0.622700
     21 O36          0.0470    -1.8510    -3.3760 o          1 S44      -0.620100
     22 C14         -1.3010    -0.8730    -1.6410 ca         1 S44      -0.147600
     23 C15         -2.5090    -1.0320    -2.3520 ca         1 S44      -0.073500
     24 C16         -3.7320    -0.6160    -1.8010 ca         1 S44      -0.124000
     25 C17         -3.7970    -0.0260    -0.5200 ca         1 S44      -0.055300
     26 C18         -2.5840     0.1330     0.1920 ca         1 S44      -0.124000
     27 C19         -1.3580    -0.2820    -0.3570 ca         1 S44      -0.073500
     28 C20         -5.1750     0.4200     0.0530 c6         1 S44       0.002300
     29 C21         -5.0790     1.0570     1.4860 c6         1 S44      -0.062400
     30 C22         -6.4800     1.4850     2.0110 c6         1 S44      -0.059700
     31 C23         -7.4040     0.2380     2.0850 c6         1 S44      -0.067400
     32 C24         -7.5440    -0.3880     0.6690 c6         1 S44      -0.059700
     33 C25         -6.1390    -0.8130     0.1490 c6         1 S44      -0.062400
     34 C26         -5.8300     1.4850    -0.8940 c6         1 S44      -0.062400
     35 C27         -7.2340     1.9100    -0.3740 c6         1 S44      -0.059700
     36 C28         -8.1580     0.6610    -0.3020 c6         1 S44      -0.067400
     37 C29         -7.0950     2.5330     1.0430 c6         1 S44      -0.067400
     38 H2           4.3350     2.9820    -0.6700 hc         1 S44       0.032700
     39 H3           5.4650     5.1510    -0.0410 hc         1 S44       0.040700
     40 H3A          7.0020     4.3030     0.0490 hc         1 S44       0.040700
     41 H4           6.6650     5.5120    -2.1350 hc         1 S44       0.012367
     42 H4A          6.8780     3.7730    -2.3960 hc         1 S44       0.012367
     43 H4B          5.2530     4.4940    -2.4830 hc         1 S44       0.012367
     44 H5           6.3520     1.7290    -1.4780 hc         1 S44       0.031200
     45 H5A          6.9820     1.6780     0.1520 hc         1 S44       0.031200
     46 H7           4.1000     0.6290    -2.0100 ha         1 S44       0.102000
     47 H10          4.9100    -2.0970     2.0780 ha         1 S44       0.107000
     48 H11          6.2080    -0.0440     1.6940 ha         1 S44       0.141000
     49 H30          4.1370    -4.3170     1.6470 h1         1 S44       0.029700
     50 H30A         2.9040    -3.3440     2.4960 h1         1 S44       0.029700
     51 H31          1.0980    -4.6450     1.3460 hc         1 S44       0.057700
     52 H31A         2.3170    -5.6100     0.5090 hc         1 S44       0.057700
     53 H32          1.4100    -6.8470     2.4770 hc         1 S44       0.028700
     54 H32A         3.1370    -6.5020     2.7180 hc         1 S44       0.028700
     55 H32B         1.9080    -5.5290     3.5610 hc         1 S44       0.028700
     56 H12          2.7030    -1.0940    -2.9140 h1         1 S44       0.054200
     57 H12A         2.4900    -2.6490    -2.0840 h1         1 S44       0.054200
     58 HN35         1.0420    -0.7280    -0.6120 hn         1 S44       0.317500
     59 H15         -2.5050    -1.4830    -3.3430 ha         1 S44       0.129500
     60 H16         -4.6360    -0.7600    -2.3870 ha         1 S44       0.111500
     61 H18         -2.5630     0.5790     1.1810 ha         1 S44       0.111500
     62 H19         -0.4590    -0.1350     0.2360 ha         1 S44       0.129500
     63 H21         -4.6340     0.3420     2.1910 hc         1 S44       0.044533
     64 H21A        -4.4190     1.9360     1.4680 hc         1 S44       0.044533
     65 H22         -6.3780     1.9250     3.0120 hc         1 S44       0.045700
     66 H23         -6.9920    -0.5000     2.7870 hc         1 S44       0.037033
     67 H23A        -8.3920     0.5200     2.4750 hc         1 S44       0.037033
     68 H24         -8.1980    -1.2690     0.7200 hc         1 S44       0.045700
     69 H25         -6.2530    -1.2970    -0.8300 hc         1 S44       0.044533
     70 H25A        -5.7090    -1.5740     0.8140 hc         1 S44       0.044533
     71 H26         -5.1780     2.3660    -0.9740 hc         1 S44       0.044533
     72 H26A        -5.9310     1.0900    -1.9140 hc         1 S44       0.044533
     73 H27         -7.6700     2.6510    -1.0590 hc         1 S44       0.045700
     74 H28         -8.2840     0.2240    -1.3020 hc         1 S44       0.037033
     75 H28A        -9.1620     0.9510     0.0380 hc         1 S44       0.037033
     76 H29         -8.0770     2.8610     1.4120 hc         1 S44       0.037033
     77 H29A        -6.4620     3.4310     1.0030 hc         1 S44       0.037033
@<TRIPOS>BOND
     1     1     3 1   
     2     2     3 1   
     3     3     4 1   
     4     4     5 1   
     5     4     7 1   
     6     4    38 1   
     7     5     6 1   
     8     5    39 1   
     9     5    40 1   
    10     6    41 1   
    11     6    42 1   
    12     6    43 1   
    13     7     8 1   
    14     7    44 1   
    15     7    45 1   
    16     8     9 ar  
    17     8    13 ar  
    18     9    10 ar  
    19     9    46 1   
    20    10    11 ar  
    21    10    18 1   
    22    11    12 ar  
    23    11    14 1   
    24    12    13 ar  
    25    12    47 1   
    26    13    48 1   
    27    14    15 1   
    28    15    16 1   
    29    15    49 1   
    30    15    50 1   
    31    16    17 1   
    32    16    51 1   
    33    16    52 1   
    34    17    53 1   
    35    17    54 1   
    36    17    55 1   
    37    18    19 1   
    38    18    56 1   
    39    18    57 1   
    40    19    20 1   
    41    19    58 1   
    42    20    21 2   
    43    20    22 1   
    44    22    23 ar  
    45    22    27 ar  
    46    23    24 ar  
    47    23    59 1   
    48    24    25 ar  
    49    24    60 1   
    50    25    26 ar  
    51    25    28 1   
    52    26    27 ar  
    53    26    61 1   
    54    27    62 1   
    55    28    29 1   
    56    28    33 1   
    57    28    34 1   
    58    29    30 1   
    59    29    63 1   
    60    29    64 1   
    61    30    31 1   
    62    30    37 1   
    63    30    65 1   
    64    31    32 1   
    65    31    66 1   
    66    31    67 1   
    67    32    33 1   
    68    32    36 1   
    69    32    68 1   
    70    33    69 1   
    71    33    70 1   
    72    34    35 1   
    73    34    71 1   
    74    34    72 1   
    75    35    36 1   
    76    35    37 1   
    77    35    73 1   
    78    36    74 1   
    79    36    75 1   
    80    37    76 1   
    81    37    77 1   
@<TRIPOS>SUBSTRUCTURE
     1 S44         1 TEMP              0 ****  ****    0 ROOT
