@<TRIPOS>MOLECULE
S45
   32    34     1     0     0
SMALL
No Charge or Current Charge


@<TRIPOS>ATOM
      1 Cl1         -6.1950    -0.6390     0.0730 cl         1 S45      -0.196000
      2 C7          -4.4700    -0.3000     0.0460 ca         1 S45       0.137000
      3 C10         -4.0160     1.0260    -0.0070 ca         1 S45      -0.115500
      4 C6          -2.6370     1.3000    -0.0280 ca         1 S45      -0.060000
      5 C4          -1.6900     0.2470     0.0020 ca         1 S45      -0.144500
      6 C5          -2.1660    -1.0860     0.0550 ca         1 S45      -0.060000
      7 C9          -3.5470    -1.3550     0.0770 ca         1 S45      -0.115500
      8 C1          -0.2440     0.5390    -0.0210 cc         1 S45       0.614500
      9 N1           0.6670    -0.4760     0.0090 nc         1 S45      -0.718000
     10 C2           1.8050     0.1830    -0.0260 cd         1 S45       0.493300
     11 O1           1.6410     1.5360    -0.0720 os         1 S45      -0.088700
     12 N2           0.2490     1.7660    -0.0690 nd         1 S45      -0.378300
     13 C3           3.1760    -0.4520    -0.0040 c6         1 S45      -0.104000
     14 C11          3.9410    -0.1050     1.3040 c6         1 S45      -0.071400
     15 C13          5.3700    -0.7010     1.2700 c6         1 S45      -0.075400
     16 C12          6.1230    -0.2660    -0.0110 c6         1 S45       0.156800
     17 N3           5.3520    -0.6140    -1.2290 n7         1 S45      -0.864400
     18 C8           3.9940    -0.0140    -1.2450 c6         1 S45       0.165800
     19 H10         -4.7330     1.8420    -0.0310 ha         1 S45       0.133500
     20 H6          -2.3120     2.3380    -0.0690 ha         1 S45       0.138000
     21 H5          -1.4720    -1.9240     0.0800 ha         1 S45       0.138000
     22 H9          -3.9000    -2.3820     0.1180 ha         1 S45       0.133500
     23 H3           3.0530    -1.5420    -0.0530 hc         1 S45       0.098700
     24 H11          4.0020     0.9860     1.4270 hc         1 S45       0.052200
     25 H11A         3.3950    -0.4900     2.1770 hc         1 S45       0.052200
     26 H13          5.9320    -0.3830     2.1580 hc         1 S45       0.052200
     27 H13A         5.3170    -1.7980     1.3100 hc         1 S45       0.052200
     28 H12          6.2940     0.8210     0.0160 h1         1 S45       0.034200
     29 H12A         7.1070    -0.7570    -0.0450 h1         1 S45       0.034200
     30 HN3          5.8710    -0.2850    -2.0550 hn         1 S45       0.419000
     31 H8           3.4690    -0.3230    -2.1610 h1         1 S45       0.042700
     32 H8A          4.0810     1.0830    -1.2660 h1         1 S45       0.042700
@<TRIPOS>BOND
     1     1     2 1   
     2     2     3 ar  
     3     2     7 ar  
     4     3     4 ar  
     5     3    19 1   
     6     4     5 ar  
     7     4    20 1   
     8     5     6 ar  
     9     5     8 1   
    10     6     7 ar  
    11     6    21 1   
    12     7    22 1   
    13     8     9 1   
    14     8    12 2   
    15     9    10 2   
    16    10    11 1   
    17    10    13 1   
    18    11    12 1   
    19    13    14 1   
    20    13    18 1   
    21    13    23 1   
    22    14    15 1   
    23    14    24 1   
    24    14    25 1   
    25    15    16 1   
    26    15    26 1   
    27    15    27 1   
    28    16    17 1   
    29    16    28 1   
    30    16    29 1   
    31    17    18 1   
    32    17    30 1   
    33    18    31 1   
    34    18    32 1   
@<TRIPOS>SUBSTRUCTURE
     1 S45         1 TEMP              0 ****  ****    0 ROOT
