@<TRIPOS>MOLECULE
S45
   32    34     1     0     0
SMALL
abcg2


@<TRIPOS>ATOM
      1 CL1         -6.1160    -0.5490     0.0090 cl         1 S45      -0.196000
      2 C7          -4.4120    -0.2560     0.0090 ca         1 S45       0.137000
      3 C10         -3.9480     1.0520     0.0350 ca         1 S45      -0.115500
      4 C6          -2.5850     1.2850     0.0350 ca         1 S45      -0.060000
      5 C4          -1.6840     0.2210     0.0090 ca         1 S45      -0.144500
      6 C5          -2.1710    -1.0830    -0.0170 ca         1 S45      -0.060000
      7 C9          -3.5350    -1.3280    -0.0170 ca         1 S45      -0.115500
      8 C1          -0.2420     0.4560     0.0090 cc         1 S45       0.614500
      9 N1           0.6800    -0.5510     0.0150 nc         1 S45      -0.718000
     10 C2           1.8040     0.0860     0.0130 cd         1 S45       0.493300
     11 O1           1.6310     1.4030     0.0060 os         1 S45      -0.088700
     12 N2           0.2860     1.6430     0.0020 nd         1 S45      -0.378300
     13 C3           3.1800    -0.4670     0.0260 c6         1 S45      -0.104000
     14 C11          3.9420    -0.0610     1.2970 c6         1 S45      -0.071400
     15 C13          5.3630    -0.6100     1.2520 c6         1 S45      -0.075400
     16 C12          6.0580    -0.2080    -0.0390 c6         1 S45       0.156800
     17 N3           5.2770    -0.6660    -1.1750 n7         1 S45      -0.864400
     18 C8           3.9680    -0.0480    -1.2220 c6         1 S45       0.165800
     19 H10         -4.6420     1.8810     0.0560 ha         1 S45       0.133500
     20 H6          -2.2270     2.3060     0.0560 ha         1 S45       0.138000
     21 H5          -1.4840    -1.9190    -0.0370 ha         1 S45       0.138000
     22 H9          -3.9050    -2.3440    -0.0370 ha         1 S45       0.133500
     23 H3           3.0710    -1.5540     0.0100 hc         1 S45       0.098700
     24 H11          3.9760     1.0300     1.3740 hc         1 S45       0.052200
     25 H11A         3.4170    -0.4270     2.1810 hc         1 S45       0.052200
     26 H13          5.9280    -0.2400     2.1100 hc         1 S45       0.052200
     27 H13A         5.3420    -1.7010     1.3270 hc         1 S45       0.052200
     28 H12          6.2020     0.8850    -0.0420 h1         1 S45       0.034200
     29 H12A         7.0500    -0.6600    -0.0910 h1         1 S45       0.034200
     30 HN3          5.7690    -0.4640    -2.0350 hn         1 S45       0.419000
     31 H8           3.4480    -0.3890    -2.1190 h1         1 S45       0.042700
     32 H8A          4.0170     1.0520    -1.2690 h1         1 S45       0.042700
@<TRIPOS>BOND
     1     1     2 1   
     2     2     3 ar  
     3     2     7 ar  
     4     3     4 ar  
     5     3    19 1   
     6     4     5 ar  
     7     4    20 1   
     8     5     6 ar  
     9     5     8 1   
    10     6     7 ar  
    11     6    21 1   
    12     7    22 1   
    13     8     9 1   
    14     8    12 2   
    15     9    10 2   
    16    10    11 1   
    17    10    13 1   
    18    11    12 1   
    19    13    14 1   
    20    13    18 1   
    21    13    23 1   
    22    14    15 1   
    23    14    24 1   
    24    14    25 1   
    25    15    16 1   
    26    15    26 1   
    27    15    27 1   
    28    16    17 1   
    29    16    28 1   
    30    16    29 1   
    31    17    18 1   
    32    17    30 1   
    33    18    31 1   
    34    18    32 1   
@<TRIPOS>SUBSTRUCTURE
     1 S45         1 TEMP              0 ****  ****    0 ROOT
