@<TRIPOS>MOLECULE
S46
   32    33     1     0     0
SMALL
No Charge or Current Charge


@<TRIPOS>ATOM
      1 C01         -1.2950    -1.0560     0.6030 c6         1 S46       0.095000
      2 C02         -2.4410    -1.5350    -0.3330 c6         1 S46       0.138800
      3 N03         -3.7340    -0.8570    -0.0340 n3         1 S46      -0.715600
      4 C04         -3.5740     0.6240    -0.0910 c6         1 S46       0.138800
      5 C05         -2.4510     1.1160     0.8620 c6         1 S46       0.095000
      6 N06         -1.1510     0.4310     0.6060 n          1 S46      -0.406800
      7 C07         -4.8420    -1.3430    -0.8840 c3         1 S46       0.153100
      8 C08         -0.1050     1.0780    -0.0890 c          1 S46       0.621700
      9 O09         -0.2900     2.1590    -0.6350 o          1 S46      -0.598100
     10 C10          1.2800     0.4680    -0.0540 ca         1 S46      -0.185600
     11 C11          2.1740     0.7180    -1.1170 ca         1 S46      -0.034000
     12 C12          1.7280    -0.2970     1.0480 ca         1 S46      -0.034000
     13 C13          3.0280    -0.8300     1.0610 ca         1 S46      -0.187000
     14 C14          3.8970    -0.5960    -0.0120 ca         1 S46       0.156100
     15 C15          3.4740     0.1810    -1.0990 ca         1 S46      -0.187000
     16 O16          5.1550    -1.1180     0.0130 oh         1 S46      -0.530100
     17 H1          -1.5010    -1.3960     1.6280 h1         1 S46       0.063700
     18 H2          -0.3680    -1.5450     0.2760 h1         1 S46       0.063700
     19 H3          -2.1450    -1.3390    -1.3750 h1         1 S46       0.040450
     20 H4          -2.5480    -2.6250    -0.2290 h1         1 S46       0.040450
     21 H6          -3.3310     0.9410    -1.1170 h1         1 S46       0.040450
     22 H7          -4.5150     1.1220     0.1870 h1         1 S46       0.040450
     23 H8          -2.3430     2.2050     0.7690 h1         1 S46       0.063700
     24 H9          -2.7540     0.9150     1.8990 h1         1 S46       0.063700
     25 H10         -4.9670    -2.4290    -0.7750 h1         1 S46       0.032033
     26 H11         -5.7890    -0.8640    -0.5990 h1         1 S46       0.032033
     27 H12         -4.6500    -1.1230    -1.9430 h1         1 S46       0.032033
     28 H13          1.8580     1.3210    -1.9670 ha         1 S46       0.124500
     29 H14          1.0790    -0.4660     1.9060 ha         1 S46       0.124500
     30 H15          3.3630    -1.4200     1.9110 ha         1 S46       0.124500
     31 H16          4.1440     0.3760    -1.9330 ha         1 S46       0.124500
     32 H17          5.6170    -0.8510    -0.8100 ho         1 S46       0.468000
@<TRIPOS>BOND
     1     1     2 1   
     2     1     6 1   
     3     1    17 1   
     4     1    18 1   
     5     2     3 1   
     6     2    19 1   
     7     2    20 1   
     8     3     4 1   
     9     3     7 1   
    10     4     5 1   
    11     4    21 1   
    12     4    22 1   
    13     5     6 1   
    14     5    23 1   
    15     5    24 1   
    16     6     8 1   
    17     7    25 1   
    18     7    26 1   
    19     7    27 1   
    20     8     9 2   
    21     8    10 1   
    22    10    11 ar  
    23    10    12 ar  
    24    11    15 ar  
    25    11    28 1   
    26    12    13 ar  
    27    12    29 1   
    28    13    14 ar  
    29    13    30 1   
    30    14    15 ar  
    31    14    16 1   
    32    15    31 1   
    33    16    32 1   
@<TRIPOS>SUBSTRUCTURE
     1 S46         1 TEMP              0 ****  ****    0 ROOT
