@<TRIPOS>MOLECULE
S46
   32    33     1     0     0
SMALL
abcg2


@<TRIPOS>ATOM
      1 C01         -1.2740    -1.0040     0.6330 c6         1 S46       0.095000
      2 C02         -2.3330    -1.4700    -0.3550 c6         1 S46       0.138800
      3 N03         -3.6110    -0.8470    -0.0830 n3         1 S46      -0.715600
      4 C04         -3.5000     0.5970    -0.1410 c6         1 S46       0.138800
      5 C05         -2.4590     1.0890     0.8490 c6         1 S46       0.095000
      6 N06         -1.1770     0.4460     0.6170 n          1 S46      -0.406800
      7 C07         -4.6460    -1.3400    -0.9640 c3         1 S46       0.153100
      8 C08         -0.1330     1.1500     0.1230 c          1 S46       0.621700
      9 O09         -0.2260     2.3220    -0.2210 o          1 S46      -0.598100
     10 C10          1.1920     0.4670     0.0500 ca         1 S46      -0.185600
     11 C11          1.9660     0.6090    -1.0970 ca         1 S46      -0.034000
     12 C12          1.7340    -0.2120     1.1400 ca         1 S46      -0.034000
     13 C13          3.0080    -0.7500     1.0840 ca         1 S46      -0.187000
     14 C14          3.7630    -0.6270    -0.0820 ca         1 S46       0.156100
     15 C15          3.2320     0.0540    -1.1760 ca         1 S46      -0.187000
     16 O16          4.9900    -1.1760    -0.0950 oh         1 S46      -0.530100
     17 H1          -1.5350    -1.3380     1.6410 h1         1 S46       0.063700
     18 H2          -0.3230    -1.4580     0.3690 h1         1 S46       0.063700
     19 H3          -1.9810    -1.2580    -1.3810 h1         1 S46       0.040450
     20 H4          -2.4360    -2.5540    -0.2680 h1         1 S46       0.040450
     21 H6          -3.2360     0.9510    -1.1540 h1         1 S46       0.040450
     22 H7          -4.4660     1.0390     0.1120 h1         1 S46       0.040450
     23 H8          -2.3490     2.1670     0.7780 h1         1 S46       0.063700
     24 H9          -2.7820     0.8470     1.8660 h1         1 S46       0.063700
     25 H10         -4.7360    -2.4230    -0.8650 h1         1 S46       0.032033
     26 H11         -5.6060    -0.8980    -0.6930 h1         1 S46       0.032033
     27 H12         -4.4600    -1.1120    -2.0250 h1         1 S46       0.032033
     28 H13          1.5740     1.1460    -1.9520 ha         1 S46       0.124500
     29 H14          1.1650    -0.3150     2.0550 ha         1 S46       0.124500
     30 H15          3.4220    -1.2650     1.9420 ha         1 S46       0.124500
     31 H16          3.8100     0.1580    -2.0870 ha         1 S46       0.124500
     32 H17          5.4150    -1.0300    -0.9470 ho         1 S46       0.468000
@<TRIPOS>BOND
     1     1     2 1   
     2     1     6 1   
     3     1    17 1   
     4     1    18 1   
     5     2     3 1   
     6     2    19 1   
     7     2    20 1   
     8     3     4 1   
     9     3     7 1   
    10     4     5 1   
    11     4    21 1   
    12     4    22 1   
    13     5     6 1   
    14     5    23 1   
    15     5    24 1   
    16     6     8 1   
    17     7    25 1   
    18     7    26 1   
    19     7    27 1   
    20     8     9 2   
    21     8    10 1   
    22    10    11 ar  
    23    10    12 ar  
    24    11    15 ar  
    25    11    28 1   
    26    12    13 ar  
    27    12    29 1   
    28    13    14 ar  
    29    13    30 1   
    30    14    15 ar  
    31    14    16 1   
    32    15    31 1   
    33    16    32 1   
@<TRIPOS>SUBSTRUCTURE
     1 S46         1 TEMP              0 ****  ****    0 ROOT
