@<TRIPOS>MOLECULE
S47
   58    62     1     0     0
SMALL
bcc


@<TRIPOS>ATOM
      1 C1           0.7410     3.0420     0.2290 c5         1 S47       0.139600
      2 N1           0.0020     5.1800    -0.4430 n7         1 S47      -0.808200
      3 O1           1.3450     2.1320    -0.6950 os         1 S47      -0.422900
      4 C2           2.5770     1.7080    -0.4390 c          1 S47       0.642600
      5 O2           3.2270     2.0710     0.5070 o          1 S47      -0.518000
      6 O3          -1.4040     2.1400     0.8100 os         1 S47      -0.422900
      7 C4          -0.7580     3.0680    -0.0560 c5         1 S47       0.139600
      8 O4          -3.2340     2.0730    -0.4750 o          1 S47      -0.518000
      9 C5          -2.6220     1.7080     0.4920 c          1 S47       0.642600
     10 C6           3.0640     0.7410    -1.4920 c3         1 S47      -0.090100
     11 C7           1.1890     4.5020     0.0640 c5         1 S47       0.134800
     12 C13          3.9640    -0.3160    -0.9210 ca         1 S47      -0.067300
     13 C14          5.3060    -0.3000    -1.1960 ca         1 S47      -0.104000
     14 C15          6.1750    -1.2830    -0.6800 ca         1 S47      -0.126000
     15 C16          5.6870    -2.2790     0.1160 ca         1 S47      -0.107500
     16 C17          4.3080    -2.3350     0.4280 ca         1 S47      -0.037000
     17 C18          3.4320    -1.3470    -0.0950 ca         1 S47      -0.019000
     18 C19          2.0570    -1.4300     0.2360 ca         1 S47      -0.126500
     19 C20         -5.3620    -0.3350     1.1440 ca         1 S47      -0.104000
     20 C21          2.4550    -3.4080     1.5560 ca         1 S47      -0.125500
     21 C22          3.7880    -3.3580     1.2540 ca         1 S47      -0.113000
     22 C23          1.5810    -2.4320     1.0400 ca         1 S47      -0.122000
     23 C24         -6.2100    -1.3160     0.5900 ca         1 S47      -0.126000
     24 C25         -5.6940    -2.2920    -0.2140 ca         1 S47      -0.107500
     25 C26         -4.3080    -2.3280    -0.4960 ca         1 S47      -0.037000
     26 C27         -3.4530    -1.3420     0.0660 ca         1 S47      -0.019000
     27 C28         -3.7600    -3.3300    -1.3300 ca         1 S47      -0.113000
     28 C29         -2.4200    -3.3620    -1.6030 ca         1 S47      -0.125500
     29 C30         -1.5680    -2.3880    -1.0480 ca         1 S47      -0.122000
     30 C31         -2.0700    -1.4070    -0.2350 ca         1 S47      -0.126500
     31 C32         -1.1310     4.5240     0.1800 c5         1 S47       0.134800
     32 C33         -4.0150    -0.3320     0.8990 ca         1 S47      -0.067300
     33 C34         -3.1380     0.7210     1.5130 c3         1 S47      -0.090100
     34 H1           0.9270     2.6950     1.2470 h1         1 S47       0.090700
     35 HN1          0.0210     6.1730    -0.2560 hn         1 S47       0.369800
     36 H4          -0.9450     2.8050    -1.1000 h1         1 S47       0.090700
     37 H6           2.2190     0.3090    -2.0310 hc         1 S47       0.078700
     38 H6A          3.6160     1.3350    -2.2270 hc         1 S47       0.078700
     39 H7           1.5170     4.8810     1.0380 h1         1 S47       0.054700
     40 H7A          2.0280     4.6050    -0.6270 h1         1 S47       0.054700
     41 H14          5.7120     0.4830    -1.8240 ha         1 S47       0.129500
     42 H15          7.2290    -1.2400    -0.9190 ha         1 S47       0.134000
     43 H16          6.3480    -3.0380     0.5190 ha         1 S47       0.132000
     44 H19          1.3610    -0.6950    -0.1490 ha         1 S47       0.131000
     45 H21          2.0670    -4.1950     2.1890 ha         1 S47       0.132500
     46 H22          4.4660    -4.1050     1.6490 ha         1 S47       0.131000
     47 H23          0.5270    -2.4760     1.2810 ha         1 S47       0.134000
     48 H24         -7.2690    -1.2880     0.8080 ha         1 S47       0.134000
     49 H25         -6.3380    -3.0490    -0.6450 ha         1 S47       0.132000
     50 H28         -4.4210    -4.0760    -1.7530 ha         1 S47       0.131000
     51 H29         -2.0100    -4.1320    -2.2430 ha         1 S47       0.132500
     52 H30         -0.5080    -2.4180    -1.2670 ha         1 S47       0.134000
     53 H31         -1.3890    -0.6750     0.1820 ha         1 S47       0.131000
     54 H32         -1.2260     4.7140     1.2610 h1         1 S47       0.054700
     55 H32A        -2.0690     4.8020    -0.2990 h1         1 S47       0.054700
     56 H34         -2.3090     0.2840     2.0720 hc         1 S47       0.078700
     57 H34A        -3.7170     1.3010     2.2390 hc         1 S47       0.078700
     58 H20         -5.7900     0.4320     1.7770 ha         1 S47       0.129500
@<TRIPOS>BOND
     1     1     3 1   
     2     1     7 1   
     3     1    11 1   
     4     1    34 1   
     5     2    11 1   
     6     2    31 1   
     7     2    35 1   
     8     3     4 1   
     9     4     5 2   
    10     4    10 1   
    11     6     7 1   
    12     6     9 1   
    13     7    31 1   
    14     7    36 1   
    15     8     9 2   
    16     9    33 1   
    17    10    12 1   
    18    10    37 1   
    19    10    38 1   
    20    11    39 1   
    21    11    40 1   
    22    12    13 ar  
    23    12    17 ar  
    24    13    14 ar  
    25    13    41 1   
    26    14    15 ar  
    27    14    42 1   
    28    15    16 ar  
    29    15    43 1   
    30    16    17 ar  
    31    16    21 ar  
    32    17    18 ar  
    33    18    22 ar  
    34    18    44 1   
    35    19    23 ar  
    36    19    32 ar  
    37    19    58 1   
    38    20    21 ar  
    39    20    22 ar  
    40    20    45 1   
    41    21    46 1   
    42    22    47 1   
    43    23    24 ar  
    44    23    48 1   
    45    24    25 ar  
    46    24    49 1   
    47    25    26 ar  
    48    25    27 ar  
    49    26    30 ar  
    50    26    32 ar  
    51    27    28 ar  
    52    27    50 1   
    53    28    29 ar  
    54    28    51 1   
    55    29    30 ar  
    56    29    52 1   
    57    30    53 1   
    58    31    54 1   
    59    31    55 1   
    60    32    33 1   
    61    33    56 1   
    62    33    57 1   
@<TRIPOS>SUBSTRUCTURE
     1 S47         1 TEMP              0 ****  ****    0 ROOT
