@<TRIPOS>MOLECULE
S47
   58    62     1     0     0
SMALL
No Charge or Current Charge


@<TRIPOS>ATOM
      1 C1           0.7560     2.9580     0.1170 c5         1 S47       0.162800
      2 N1          -0.1120     5.2350    -0.2550 n7         1 S47      -0.863400
      3 O1           1.3120     1.9730    -0.8020 os         1 S47      -0.446100
      4 C2           2.6710     1.7830    -0.7020 c          1 S47       0.593600
      5 O2           3.4240     2.4530    -0.0070 o          1 S47      -0.469000
      6 O3          -1.3410     1.9540     0.8390 os         1 S47      -0.446100
      7 C4          -0.7860     2.9570    -0.0600 c5         1 S47       0.162800
      8 O4          -3.4540     2.4410     0.0510 o          1 S47      -0.469000
      9 C5          -2.6990     1.7630     0.7360 c          1 S47       0.593600
     10 C6           3.1560     0.7040    -1.6740 c3         1 S47      -0.090100
     11 C7           1.1340     4.4120    -0.3430 c5         1 S47       0.134800
     12 C13          3.9690    -0.3850    -0.9640 ca         1 S47      -0.067300
     13 C14          5.3580    -0.4390    -1.2030 ca         1 S47      -0.086000
     14 C15          6.1600    -1.4030    -0.5760 ca         1 S47      -0.108000
     15 C16          5.5840    -2.3290     0.3040 ca         1 S47      -0.089500
     16 C17          4.2020    -2.2940     0.5600 ca         1 S47      -0.037000
     17 C18          3.3810    -1.3250    -0.0720 ca         1 S47      -0.019000
     18 C19          1.9940    -1.3250     0.2110 ca         1 S47      -0.108500
     19 C20         -5.3800    -0.4750     1.1990 ca         1 S47      -0.086000
     20 C21          2.2680    -3.2120     1.7250 ca         1 S47      -0.107500
     21 C22          3.6440    -3.2300     1.4510 ca         1 S47      -0.095000
     22 C23          1.4450    -2.2600     1.1060 ca         1 S47      -0.104000
     23 C24         -6.1790    -1.4310     0.5560 ca         1 S47      -0.108000
     24 C25         -5.6010    -2.3400    -0.3400 ca         1 S47      -0.089500
     25 C26         -4.2190    -2.2960    -0.5950 ca         1 S47      -0.037000
     26 C27         -3.4010    -1.3360     0.0530 ca         1 S47      -0.019000
     27 C28         -3.6580    -3.2150    -1.5020 ca         1 S47      -0.095000
     28 C29         -2.2830    -3.1890    -1.7760 ca         1 S47      -0.107500
     29 C30         -1.4630    -2.2450    -1.1410 ca         1 S47      -0.104000
     30 C31         -2.0140    -1.3270    -0.2300 ca         1 S47      -0.108500
     31 C32         -1.0990     4.3880     0.4650 c5         1 S47       0.134800
     32 C33         -3.9910    -0.4130     0.9610 ca         1 S47      -0.067300
     33 C34         -3.1820     0.6660     1.6900 c3         1 S47      -0.090100
     34 H1           1.0500     2.7480     1.1550 h1         1 S47       0.090700
     35 HN1          0.0570     6.1160     0.2540 hn         1 S47       0.425000
     36 H4          -1.0940     2.7930    -1.1020 h1         1 S47       0.090700
     37 H6           2.3010     0.2690    -2.2040 hc         1 S47       0.078700
     38 H6A          3.7720     1.2070    -2.4280 hc         1 S47       0.078700
     39 H7           1.9210     4.8230     0.3050 h1         1 S47       0.054700
     40 H7A          1.5200     4.4220    -1.3730 h1         1 S47       0.054700
     41 H14          5.8250     0.2740    -1.8790 ha         1 S47       0.111500
     42 H15          7.2300    -1.4310    -0.7710 ha         1 S47       0.116000
     43 H16          6.2140    -3.0720     0.7880 ha         1 S47       0.114000
     44 H19          1.3230    -0.6100    -0.2530 ha         1 S47       0.113000
     45 H21          1.8400    -3.9350     2.4160 ha         1 S47       0.114500
     46 H22          4.2760    -3.9710     1.9350 ha         1 S47       0.113000
     47 H23          0.3790    -2.2480     1.3200 ha         1 S47       0.116000
     48 H24         -7.2490    -1.4650     0.7500 ha         1 S47       0.116000
     49 H25         -6.2290    -3.0760    -0.8360 ha         1 S47       0.114000
     50 H28         -4.2880    -3.9500    -1.9980 ha         1 S47       0.113000
     51 H29         -1.8530    -3.8990    -2.4790 ha         1 S47       0.114500
     52 H30         -0.3970    -2.2270    -1.3550 ha         1 S47       0.116000
     53 H31         -1.3450    -0.6180     0.2460 ha         1 S47       0.113000
     54 H32         -0.9460     4.4460     1.5530 h1         1 S47       0.054700
     55 H32A        -2.1290     4.7030     0.2490 h1         1 S47       0.054700
     56 H34         -2.3260     0.2250     2.2120 hc         1 S47       0.078700
     57 H34A        -3.7990     1.1540     2.4520 hc         1 S47       0.078700
     58 H20         -5.8490     0.2260     1.8870 ha         1 S47       0.111500
@<TRIPOS>BOND
     1     1     3 1   
     2     1     7 1   
     3     1    11 1   
     4     1    34 1   
     5     2    11 1   
     6     2    31 1   
     7     2    35 1   
     8     3     4 1   
     9     4     5 2   
    10     4    10 1   
    11     6     7 1   
    12     6     9 1   
    13     7    31 1   
    14     7    36 1   
    15     8     9 2   
    16     9    33 1   
    17    10    12 1   
    18    10    37 1   
    19    10    38 1   
    20    11    39 1   
    21    11    40 1   
    22    12    13 ar  
    23    12    17 ar  
    24    13    14 ar  
    25    13    41 1   
    26    14    15 ar  
    27    14    42 1   
    28    15    16 ar  
    29    15    43 1   
    30    16    17 ar  
    31    16    21 ar  
    32    17    18 ar  
    33    18    22 ar  
    34    18    44 1   
    35    19    23 ar  
    36    19    32 ar  
    37    19    58 1   
    38    20    21 ar  
    39    20    22 ar  
    40    20    45 1   
    41    21    46 1   
    42    22    47 1   
    43    23    24 ar  
    44    23    48 1   
    45    24    25 ar  
    46    24    49 1   
    47    25    26 ar  
    48    25    27 ar  
    49    26    30 ar  
    50    26    32 ar  
    51    27    28 ar  
    52    27    50 1   
    53    28    29 ar  
    54    28    51 1   
    55    29    30 ar  
    56    29    52 1   
    57    30    53 1   
    58    31    54 1   
    59    31    55 1   
    60    32    33 1   
    61    33    56 1   
    62    33    57 1   
@<TRIPOS>SUBSTRUCTURE
     1 S47         1 TEMP              0 ****  ****    0 ROOT
