@<TRIPOS>MOLECULE
S49
   72    75     1     0     0
SMALL
No Charge or Current Charge


@<TRIPOS>ATOM
      1 C7           4.6030    -0.9190     0.1650 c3         1 S49      -0.253100
      2 S8           3.2000    -1.2070     1.2580 s6         1 S49       1.199100
      3 C4           5.2920    -2.1880    -0.3210 ca         1 S49      -0.080300
      4 C5           4.8430    -2.8350    -1.4890 ca         1 S49      -0.085500
      5 C6           5.4790    -4.0050    -1.9380 ca         1 S49      -0.110000
      6 C1           6.5670    -4.5340    -1.2230 ca         1 S49      -0.101000
      7 C2           7.0190    -3.8910    -0.0590 ca         1 S49      -0.110000
      8 C3           6.3830    -2.7210     0.3910 ca         1 S49      -0.085500
      9 O12          2.0820    -1.7940     0.5200 o          1 S49      -0.532000
     10 O13          3.6760    -1.8070     2.5060 o          1 S49      -0.532000
     11 N21         -0.2360     1.3930    -0.5270 n          1 S49      -0.387800
     12 C22         -1.7230     1.3200    -0.5720 c5         1 S49       0.024700
     13 C26         -2.2930    -0.1270    -0.7330 c          1 S49       0.596100
     14 O30         -1.6830    -1.1440    -1.0370 o          1 S49      -0.583100
     15 C23         -2.0170     2.1540    -1.8560 c5         1 S49      -0.084400
     16 C24         -0.8370     1.7590    -2.7800 c5         1 S49      -0.094400
     17 C25          0.3700     1.8220    -1.8100 c5         1 S49       0.107000
     18 N9           2.7430     0.3380     1.6590 n7         1 S49      -0.919300
     19 C10          2.0640     1.1880     0.6290 c3         1 S49       0.171500
     20 C11          0.5010     1.0110     0.6190 c          1 S49       0.592100
     21 O31         -0.0830     0.5690     1.6050 o          1 S49      -0.606100
     22 C14          2.4630     2.6660     0.8590 c3         1 S49      -0.033100
     23 C15          3.9200     2.9290     0.4920 ca         1 S49      -0.084300
     24 C16          4.2740     3.2080    -0.8430 ca         1 S49      -0.108500
     25 C20          4.9260     2.8730     1.4760 ca         1 S49      -0.108500
     26 C17          5.6190     3.4310    -1.1880 ca         1 S49      -0.110000
     27 C19          6.2700     3.0950     1.1310 ca         1 S49      -0.110000
     28 C18          6.6170     3.3740    -0.2010 ca         1 S49      -0.105000
     29 N27         -3.6410    -0.1210    -0.4500 ns         1 S49      -0.498900
     30 C28         -4.4940    -1.3050    -0.4990 c3         1 S49       0.144300
     31 C29         -5.9440    -0.9430    -0.2210 ca         1 S49      -0.099300
     32 C33         -6.7910    -0.5470    -1.2710 ca         1 S49      -0.109000
     33 C34         -8.1310    -0.2080    -1.0160 ca         1 S49      -0.081500
     34 C35         -8.6500    -0.2420     0.2990 ca         1 S49      -0.140900
     35 C37        -10.0920     0.0920     0.5530 ce         1 S49       0.659800
     36 N39        -10.9730     0.1260    -0.3600 n2         1 S49      -0.826100
     37 N38        -10.4500     0.4750     1.7990 nv         1 S49      -1.078200
     38 C36         -7.7940    -0.6610     1.3460 ca         1 S49      -0.081500
     39 C32         -6.4540    -1.0000     1.0880 ca         1 S49      -0.109000
     40 H72C         4.2250    -0.3410    -0.6820 h1         1 S49       0.103200
     41 H71C         5.2970    -0.2930     0.7350 h1         1 S49       0.103200
     42 H5           4.0010    -2.4320    -2.0480 ha         1 S49       0.118500
     43 H6           5.1290    -4.5020    -2.8410 ha         1 S49       0.114500
     44 H1           7.0600    -5.4400    -1.5720 ha         1 S49       0.112000
     45 H2           7.8620    -4.2990     0.4960 ha         1 S49       0.114500
     46 H3           6.7390    -2.2290     1.2940 ha         1 S49       0.118500
     47 H22         -2.1770     1.7780     0.3170 h1         1 S49       0.075700
     48 H231        -2.9960     1.9390    -2.3010 hc         1 S49       0.058700
     49 H232        -1.9950     3.2290    -1.6360 hc         1 S49       0.058700
     50 H241        -0.9670     0.7470    -3.1820 hc         1 S49       0.067200
     51 H242        -0.7210     2.4350    -3.6350 hc         1 S49       0.067200
     52 H251         0.7610     2.8460    -1.7340 h1         1 S49       0.052200
     53 H252         1.1800     1.1600    -2.1410 h1         1 S49       0.052200
     54 H9           2.0580     0.1290     2.3870 hn         1 S49       0.519000
     55 H10          2.4170     0.9200    -0.3740 h1         1 S49       0.083700
     56 H141         1.8160     3.3200     0.2630 hc         1 S49       0.060700
     57 H142         2.2710     2.9360     1.9050 hc         1 S49       0.060700
     58 H16          3.5090     3.2500    -1.6150 ha         1 S49       0.112500
     59 H20          4.6660     2.6470     2.5080 ha         1 S49       0.112500
     60 H17          5.8870     3.6450    -2.2210 ha         1 S49       0.116000
     61 H19          7.0430     3.0480     1.8960 ha         1 S49       0.116000
     62 H18          7.6580     3.5450    -0.4690 ha         1 S49       0.117000
     63 H27         -4.0640     0.7660    -0.2030 hn         1 S49       0.311500
     64 H281        -4.4090    -1.7680    -1.4910 h1         1 S49       0.070200
     65 H282        -4.1400    -2.0320     0.2440 h1         1 S49       0.070200
     66 H33         -6.4110    -0.5020    -2.2900 ha         1 S49       0.120000
     67 H34         -8.7650     0.0910    -1.8480 ha         1 S49       0.127000
     68 H39        -11.8930     0.1760     0.0900 hn         1 S49       0.370400
     69 H381        -9.6770     0.7260     2.4040 hn         1 S49       0.460500
     70 H382       -11.2600     1.0800     1.8660 hn         1 S49       0.460500
     71 H36         -8.1610    -0.7380     2.3670 ha         1 S49       0.127000
     72 H32         -5.8130    -1.3120     1.9090 ha         1 S49       0.120000
@<TRIPOS>BOND
     1     1     2 1   
     2     1     3 1   
     3     1    40 1   
     4     1    41 1   
     5     2     9 2   
     6     2    10 2   
     7     2    18 1   
     8     3     4 ar  
     9     3     8 ar  
    10     4     5 ar  
    11     4    42 1   
    12     5     6 ar  
    13     5    43 1   
    14     6     7 ar  
    15     6    44 1   
    16     7     8 ar  
    17     7    45 1   
    18     8    46 1   
    19    11    12 1   
    20    11    17 1   
    21    11    20 1   
    22    12    13 1   
    23    12    15 1   
    24    12    47 1   
    25    13    14 2   
    26    13    29 1   
    27    15    16 1   
    28    15    48 1   
    29    15    49 1   
    30    16    17 1   
    31    16    50 1   
    32    16    51 1   
    33    17    52 1   
    34    17    53 1   
    35    18    19 1   
    36    18    54 1   
    37    19    20 1   
    38    19    22 1   
    39    19    55 1   
    40    20    21 2   
    41    22    23 1   
    42    22    56 1   
    43    22    57 1   
    44    23    24 ar  
    45    23    25 ar  
    46    24    26 ar  
    47    24    58 1   
    48    25    27 ar  
    49    25    59 1   
    50    26    28 ar  
    51    26    60 1   
    52    27    28 ar  
    53    27    61 1   
    54    28    62 1   
    55    29    30 1   
    56    29    63 1   
    57    30    31 1   
    58    30    64 1   
    59    30    65 1   
    60    31    32 ar  
    61    31    39 ar  
    62    32    33 ar  
    63    32    66 1   
    64    33    34 ar  
    65    33    67 1   
    66    34    35 1   
    67    34    38 ar  
    68    35    36 2   
    69    35    37 1   
    70    36    68 1   
    71    37    69 1   
    72    37    70 1   
    73    38    39 ar  
    74    38    71 1   
    75    39    72 1   
@<TRIPOS>SUBSTRUCTURE
     1 S49         1 TEMP              0 ****  ****    0 ROOT
