@<TRIPOS>MOLECULE
S49
   72    75     1     0     0
SMALL
abcg2


@<TRIPOS>ATOM
      1 C7           4.7560    -0.8420    -0.0410 c3         1 S49      -0.253100
      2 S8           3.0620    -1.1650     0.4670 s6         1 S49       1.199100
      3 C4           5.3250    -2.0540    -0.7080 ca         1 S49      -0.080300
      4 C5           5.2060    -2.2180    -2.0850 ca         1 S49      -0.085500
      5 C6           5.7160    -3.3500    -2.7040 ca         1 S49      -0.110000
      6 C1           6.3430    -4.3330    -1.9480 ca         1 S49      -0.101000
      7 C2           6.4600    -4.1770    -0.5730 ca         1 S49      -0.110000
      8 C3           5.9510    -3.0440     0.0450 ca         1 S49      -0.085500
      9 O12          2.2820    -1.4140    -0.7390 o          1 S49      -0.532000
     10 O13          3.0800    -2.1670     1.5230 o          1 S49      -0.532000
     11 N21         -0.4750     1.7600    -0.0600 n          1 S49      -0.387800
     12 C22         -1.8720     1.8480     0.3160 c5         1 S49       0.024700
     13 C26         -2.4580     0.4550     0.5270 c          1 S49       0.596100
     14 O30         -2.0750    -0.5050    -0.1220 o          1 S49      -0.583100
     15 C23         -2.5210     2.5340    -0.8940 c5         1 S49      -0.084400
     16 C24         -1.6390     2.1140    -2.0640 c5         1 S49      -0.094400
     17 C25         -0.2390     2.0990    -1.4630 c5         1 S49       0.107000
     18 N9           2.5930     0.2510     1.1540 n7         1 S49      -0.919300
     19 C10          1.8800     1.2630     0.4090 c3         1 S49       0.171500
     20 C11          0.4100     1.2740     0.8180 c          1 S49       0.592100
     21 O31          0.0800     0.9110     1.9400 o          1 S49      -0.606100
     22 C14          2.5020     2.6490     0.6620 c3         1 S49      -0.033100
     23 C15          3.9420     2.6620     0.2430 ca         1 S49      -0.084300
     24 C16          4.2810     2.7800    -1.1040 ca         1 S49      -0.108500
     25 C20          4.9610     2.4810     1.1740 ca         1 S49      -0.108500
     26 C17          5.6050     2.7060    -1.5130 ca         1 S49      -0.110000
     27 C19          6.2870     2.4120     0.7700 ca         1 S49      -0.110000
     28 C18          6.6130     2.5180    -0.5760 ca         1 S49      -0.105000
     29 N27         -3.4530     0.4100     1.4260 ns         1 S49      -0.498900
     30 C28         -4.2510    -0.7650     1.6960 c3         1 S49       0.144300
     31 C29         -5.6070    -0.7060     1.0390 ca         1 S49      -0.099300
     32 C33         -5.7270    -0.6410    -0.3490 ca         1 S49      -0.109000
     33 C34         -6.9710    -0.5830    -0.9490 ca         1 S49      -0.081500
     34 C35         -8.1350    -0.5780    -0.1790 ca         1 S49      -0.140900
     35 C37         -9.4610    -0.5240    -0.8550 ce         1 S49       0.659800
     36 N39         -9.5480    -0.9260    -2.0650 n2         1 S49      -0.826100
     37 N38        -10.4970    -0.0900    -0.0790 nv         1 S49      -1.078200
     38 C36         -8.0170    -0.6460     1.2050 ca         1 S49      -0.081500
     39 C32         -6.7650    -0.7090     1.8040 ca         1 S49      -0.109000
     40 H72C         4.7260     0.0220    -0.7070 h1         1 S49       0.103200
     41 H71C         5.3000    -0.5590     0.8600 h1         1 S49       0.103200
     42 H5           4.7200    -1.4520    -2.6770 ha         1 S49       0.118500
     43 H6           5.6250    -3.4660    -3.7760 ha         1 S49       0.114500
     44 H1           6.7430    -5.2150    -2.4300 ha         1 S49       0.112000
     45 H2           6.9500    -4.9390     0.0190 ha         1 S49       0.114500
     46 H3           6.0520    -2.9220     1.1170 ha         1 S49       0.118500
     47 H22         -1.9900     2.4500     1.2200 h1         1 S49       0.075700
     48 H231        -3.5690     2.2590    -1.0190 hc         1 S49       0.058700
     49 H232        -2.4810     3.6160    -0.7540 hc         1 S49       0.058700
     50 H241        -1.9090     1.1170    -2.4130 hc         1 S49       0.067200
     51 H242        -1.7090     2.7960    -2.9100 hc         1 S49       0.067200
     52 H251         0.2330     3.0820    -1.5490 h1         1 S49       0.052200
     53 H252         0.4040     1.3690    -1.9520 h1         1 S49       0.052200
     54 H9           2.3630     0.1730     2.1380 hn         1 S49       0.519000
     55 H10          1.9810     1.0370    -0.6530 h1         1 S49       0.083700
     56 H141         1.9370     3.4020     0.1080 hc         1 S49       0.060700
     57 H142         2.4040     2.8960     1.7220 hc         1 S49       0.060700
     58 H16          3.5010     2.9260    -1.8440 ha         1 S49       0.112500
     59 H20          4.7150     2.3880     2.2250 ha         1 S49       0.112500
     60 H17          5.8490     2.7970    -2.5640 ha         1 S49       0.116000
     61 H19          7.0670     2.2700     1.5070 ha         1 S49       0.116000
     62 H18          7.6470     2.4590    -0.8910 ha         1 S49       0.117000
     63 H27         -3.7050     1.2570     1.9090 hn         1 S49       0.311500
     64 H281        -3.7000    -1.6380     1.3470 h1         1 S49       0.070200
     65 H282        -4.3670    -0.8680     2.7750 h1         1 S49       0.070200
     66 H33         -4.8400    -0.6450    -0.9720 ha         1 S49       0.120000
     67 H34         -7.0510    -0.5390    -2.0270 ha         1 S49       0.127000
     68 H39        -10.4950    -0.8170    -2.4190 hn         1 S49       0.370400
     69 H381       -10.3030     0.5450     0.6770 hn         1 S49       0.460500
     70 H382       -11.3760     0.0880    -0.5390 hn         1 S49       0.460500
     71 H36         -8.8960    -0.6680     1.8360 ha         1 S49       0.127000
     72 H32         -6.6950    -0.7630     2.8840 ha         1 S49       0.120000
@<TRIPOS>BOND
     1     1     2 1   
     2     1     3 1   
     3     1    40 1   
     4     1    41 1   
     5     2     9 2   
     6     2    10 2   
     7     2    18 1   
     8     3     4 ar  
     9     3     8 ar  
    10     4     5 ar  
    11     4    42 1   
    12     5     6 ar  
    13     5    43 1   
    14     6     7 ar  
    15     6    44 1   
    16     7     8 ar  
    17     7    45 1   
    18     8    46 1   
    19    11    12 1   
    20    11    17 1   
    21    11    20 1   
    22    12    13 1   
    23    12    15 1   
    24    12    47 1   
    25    13    14 2   
    26    13    29 1   
    27    15    16 1   
    28    15    48 1   
    29    15    49 1   
    30    16    17 1   
    31    16    50 1   
    32    16    51 1   
    33    17    52 1   
    34    17    53 1   
    35    18    19 1   
    36    18    54 1   
    37    19    20 1   
    38    19    22 1   
    39    19    55 1   
    40    20    21 2   
    41    22    23 1   
    42    22    56 1   
    43    22    57 1   
    44    23    24 ar  
    45    23    25 ar  
    46    24    26 ar  
    47    24    58 1   
    48    25    27 ar  
    49    25    59 1   
    50    26    28 ar  
    51    26    60 1   
    52    27    28 ar  
    53    27    61 1   
    54    28    62 1   
    55    29    30 1   
    56    29    63 1   
    57    30    31 1   
    58    30    64 1   
    59    30    65 1   
    60    31    32 ar  
    61    31    39 ar  
    62    32    33 ar  
    63    32    66 1   
    64    33    34 ar  
    65    33    67 1   
    66    34    35 1   
    67    34    38 ar  
    68    35    36 2   
    69    35    37 1   
    70    36    68 1   
    71    37    69 1   
    72    37    70 1   
    73    38    39 ar  
    74    38    71 1   
    75    39    72 1   
@<TRIPOS>SUBSTRUCTURE
     1 S49         1 TEMP              0 ****  ****    0 ROOT
