@<TRIPOS>MOLECULE
S4D
   36    38     1     0     0
SMALL
abcg2


@<TRIPOS>ATOM
      1 C10        -10.9370    92.3640   106.1700 ca         1 S4D      -0.099000
      2 C13         -8.8560    90.5360   106.7580 ca         1 S4D      -0.096000
      3 C15         -8.4600    93.6940   108.3620 c5         1 S4D       0.373600
      4 C17        -12.7230    86.1730   105.1410 c5         1 S4D      -0.083400
      5 C01        -14.3990    84.7360   103.8430 c3         1 S4D      -0.081100
      6 C02        -12.9840    85.2770   103.9340 c5         1 S4D      -0.066700
      7 C03        -12.5800    86.1920   102.7770 c5         1 S4D      -0.076400
      8 C04        -11.3350    86.9360   103.2830 c5         1 S4D      -0.076400
      9 C05        -11.3930    86.8620   104.8300 c5         1 S4D       0.167500
     10 C08         -9.9450    90.1440   105.9650 ca         1 S4D      -0.090300
     11 C09        -10.9610    91.0510   105.6860 ca         1 S4D      -0.089000
     12 C11         -9.8570    92.7240   106.9390 ca         1 S4D       0.051100
     13 C12         -8.8410    91.8280   107.2240 ca         1 S4D       0.048100
     14 N06        -11.3120    88.1720   105.4560 n7         1 S4D      -0.862400
     15 O14         -7.8990    92.4440   107.9820 os         1 S4D      -0.346100
     16 O16         -9.5750    93.9220   107.5120 os         1 S4D      -0.344100
     17 H101       -11.7310    93.0620   105.9420 ha         1 S4D       0.133000
     18 H131        -8.0600    89.8410   106.9940 ha         1 S4D       0.130000
     19 H151        -8.7910    93.6500   109.4060 h2         1 S4D       0.062700
     20 H152        -7.7240    94.4850   108.2280 h2         1 S4D       0.062700
     21 H172       -12.7090    85.6320   106.0900 hc         1 S4D       0.050200
     22 H171       -13.5120    86.9330   105.2030 hc         1 S4D       0.050200
     23 H011       -14.6450    84.1110   104.7030 hc         1 S4D       0.034033
     24 H013       -15.1260    85.5510   103.8050 hc         1 S4D       0.034033
     25 H012       -14.5350    84.1270   102.9470 hc         1 S4D       0.034033
     26 H021       -12.2840    84.4330   103.9700 hc         1 S4D       0.045700
     27 H032       -12.4080    85.6530   101.8440 hc         1 S4D       0.044200
     28 H031       -13.3930    86.9030   102.5920 hc         1 S4D       0.044200
     29 H042       -10.4230    86.4670   102.9100 hc         1 S4D       0.046700
     30 H041       -11.3190    87.9730   102.9430 hc         1 S4D       0.046700
     31 H051       -10.5750    86.2100   105.1790 h1         1 S4D       0.019700
     32 H071        -9.2240    88.1310   105.8980 h1         1 S4D       0.037700
     33 H072        -9.6810    88.7900   104.3430 h1         1 S4D       0.037700
     34 H091       -11.8010    90.7300   105.0840 ha         1 S4D       0.136000
     35 H061       -11.5780    88.0880   106.4300 hn         1 S4D       0.414000
     36 C07         -9.9840    88.7490   105.3940 c3         1 S4D       0.207100
@<TRIPOS>BOND
     1     1    11 ar  
     2     1    12 ar  
     3     1    17 1   
     4     2    10 ar  
     5     2    13 ar  
     6     2    18 1   
     7     3    15 1   
     8     3    16 1   
     9     3    19 1   
    10     3    20 1   
    11     4     6 1   
    12     4     9 1   
    13     4    21 1   
    14     4    22 1   
    15     5     6 1   
    16     5    23 1   
    17     5    24 1   
    18     5    25 1   
    19     6     7 1   
    20     6    26 1   
    21     7     8 1   
    22     7    27 1   
    23     7    28 1   
    24     8     9 1   
    25     8    29 1   
    26     8    30 1   
    27     9    14 1   
    28     9    31 1   
    29    10    11 ar  
    30    10    36 1   
    31    11    34 1   
    32    12    13 ar  
    33    12    16 1   
    34    13    15 1   
    35    14    35 1   
    36    14    36 1   
    37    32    36 1   
    38    33    36 1   
@<TRIPOS>SUBSTRUCTURE
     1 S4D         1 TEMP              0 ****  ****    0 ROOT
