@<TRIPOS>MOLECULE
S4D
   36    38     1     0     0
SMALL
No Charge or Current Charge


@<TRIPOS>ATOM
      1 C10        -10.4780    92.6610   105.8240 ca         1 S4D      -0.099000
      2 C13         -9.1140    90.4100   106.8870 ca         1 S4D      -0.096000
      3 C15         -8.6590    93.3940   108.8270 c5         1 S4D       0.373600
      4 C17        -12.7490    86.3600   105.1580 c5         1 S4D      -0.083400
      5 C01        -14.2610    84.4560   104.2270 c3         1 S4D      -0.081100
      6 C02        -12.9220    85.2180   104.1270 c5         1 S4D      -0.066700
      7 C03        -12.7220    85.9950   102.7930 c5         1 S4D      -0.076400
      8 C04        -11.6450    87.0810   103.1270 c5         1 S4D      -0.076400
      9 C05        -11.4030    86.9380   104.6630 c5         1 S4D       0.167500
     10 C08         -9.8620    90.2840   105.6920 ca         1 S4D      -0.090300
     11 C09        -10.5420    91.4130   105.1670 ca         1 S4D      -0.089000
     12 C11         -9.7250    92.7460   107.0000 ca         1 S4D       0.051100
     13 C12         -9.0680    91.6630   107.5120 ca         1 S4D       0.048100
     14 N06        -11.2150    88.2730   105.2750 n7         1 S4D      -0.862400
     15 O14         -8.4060    91.9530   108.6610 os         1 S4D      -0.346100
     16 O16         -9.5610    93.8590   107.7600 os         1 S4D      -0.344100
     17 H101       -10.9980    93.5310   105.4300 ha         1 S4D       0.133000
     18 H131        -8.5850    89.5620   107.3140 ha         1 S4D       0.130000
     19 H151        -9.1230    93.5750   109.8040 h2         1 S4D       0.062700
     20 H152        -7.7090    93.9360   108.7560 h2         1 S4D       0.062700
     21 H172       -12.6910    85.9900   106.1880 hc         1 S4D       0.050200
     22 H171       -13.5670    87.0890   105.1070 hc         1 S4D       0.050200
     23 H011       -14.3540    83.9520   105.1970 hc         1 S4D       0.034033
     24 H013       -15.1150    85.1350   104.1190 hc         1 S4D       0.034033
     25 H012       -14.3380    83.6920   103.4440 hc         1 S4D       0.034033
     26 H021       -12.1310    84.4670   104.2530 hc         1 S4D       0.045700
     27 H032       -12.4030    85.3330   101.9790 hc         1 S4D       0.044200
     28 H031       -13.6550    86.4700   102.4670 hc         1 S4D       0.044200
     29 H042       -10.7180    86.9260   102.5650 hc         1 S4D       0.046700
     30 H041       -12.0170    88.0770   102.8570 hc         1 S4D       0.046700
     31 H051       -10.5680    86.2590   104.8900 h1         1 S4D       0.019700
     32 H071        -9.0910    88.3180   105.2850 h1         1 S4D       0.037700
     33 H072        -9.8360    89.1170   103.8920 h1         1 S4D       0.037700
     34 H091       -11.1230    91.3160   104.2510 ha         1 S4D       0.136000
     35 H061       -11.2690    88.1770   106.2950 hn         1 S4D       0.414000
     36 C07         -9.9380    88.9450   104.9730 c3         1 S4D       0.207100
@<TRIPOS>BOND
     1     1    11 ar  
     2     1    12 ar  
     3     1    17 1   
     4     2    10 ar  
     5     2    13 ar  
     6     2    18 1   
     7     3    15 1   
     8     3    16 1   
     9     3    19 1   
    10     3    20 1   
    11     4     6 1   
    12     4     9 1   
    13     4    21 1   
    14     4    22 1   
    15     5     6 1   
    16     5    23 1   
    17     5    24 1   
    18     5    25 1   
    19     6     7 1   
    20     6    26 1   
    21     7     8 1   
    22     7    27 1   
    23     7    28 1   
    24     8     9 1   
    25     8    29 1   
    26     8    30 1   
    27     9    14 1   
    28     9    31 1   
    29    10    11 ar  
    30    10    36 1   
    31    11    34 1   
    32    12    13 ar  
    33    12    16 1   
    34    13    15 1   
    35    14    35 1   
    36    14    36 1   
    37    32    36 1   
    38    33    36 1   
@<TRIPOS>SUBSTRUCTURE
     1 S4D         1 TEMP              0 ****  ****    0 ROOT
