@<TRIPOS>MOLECULE
S4F
   35    36     1     0     0
SMALL
No Charge or Current Charge


@<TRIPOS>ATOM
      1 C18        -42.6230   -32.3830    -5.4380 ca         1 S4F       0.189900
      2 C14        -43.1750   -32.5090     1.6050 c          1 S4F       0.702000
      3 C13        -44.3970   -31.8080     0.9820 c3         1 S4F      -0.203400
      4 C11        -44.6590   -33.2190    -1.8790 c6         1 S4F       0.213800
      5 C10        -45.0920   -33.8790    -0.5360 c6         1 S4F      -0.069700
      6 C02        -41.7170   -34.4710    -5.5490 ca         1 S4F       0.402900
      7 C03        -42.5510   -34.9060    -4.5030 ca         1 S4F      -0.119000
      8 C05        -43.4420   -33.9470    -3.9670 ca         1 S4F       0.428900
      9 C07        -45.4590   -35.1890    -3.1750 c6         1 S4F       0.219800
     10 C08        -45.8820   -35.9040    -1.8720 c6         1 S4F      -0.080400
     11 C09        -46.2560   -34.8800    -0.7750 c6         1 S4F      -0.074400
     12 N01        -40.8090   -35.2860    -6.1520 nv         1 S4F      -1.086900
     13 N06        -44.3400   -34.2460    -2.9160 nh         1 S4F      -0.759300
     14 N17        -43.4700   -32.6810    -4.4350 nb         1 S4F      -0.264000
     15 N19        -41.7450   -33.2200    -6.0220 nb         1 S4F      -0.301000
     16 O15        -43.2110   -32.7780     2.7960 o          1 S4F      -0.742500
     17 O16        -42.2340   -32.7880     0.8790 o          1 S4F      -0.742500
     18 Cl04       -42.4360   -36.5660    -3.8730 cl         1 S4F      -0.215000
     19 H181       -42.6510   -31.3620    -5.8140 h5         1 S4F       0.041100
     20 H131       -44.1100   -31.2470     0.0850 hc         1 S4F       0.021700
     21 H132       -44.8880   -31.1830     1.7380 hc         1 S4F       0.021700
     22 H122       -46.3560   -32.2590     0.1980 hc         1 S4F       0.019200
     23 H121       -45.8250   -33.3550     1.4510 hc         1 S4F       0.019200
     24 H111       -43.7740   -32.5920    -1.6960 h1         1 S4F       0.060700
     25 H112       -45.4620   -32.5570    -2.2370 h1         1 S4F       0.060700
     26 H101       -44.2350   -34.4430    -0.1440 hc         1 S4F       0.092700
     27 H071       -46.3200   -34.6410    -3.5850 h1         1 S4F       0.034200
     28 H072       -45.1720   -35.9440    -3.9210 h1         1 S4F       0.034200
     29 H082       -46.7340   -36.5670    -2.0720 hc         1 S4F       0.042700
     30 H081       -45.0610   -36.5440    -1.5210 hc         1 S4F       0.042700
     31 H091       -47.1620   -34.3360    -1.0750 hc         1 S4F       0.031700
     32 H092       -46.4990   -35.4080     0.1560 hc         1 S4F       0.031700
     33 H012       -40.0810   -34.8600    -6.7230 hn         1 S4F       0.494500
     34 H011       -40.5840   -36.1730    -5.7060 hn         1 S4F       0.494500
     35 C12        -45.4860   -32.8280     0.5500 c3         1 S4F      -0.040400
@<TRIPOS>BOND
     1     1    14 ar  
     2     1    15 ar  
     3     1    19 1   
     4     2     3 1   
     5     2    16 1   
     6     2    17 1   
     7     3    20 1   
     8     3    21 1   
     9     3    35 1   
    10     4     5 1   
    11     4    13 1   
    12     4    24 1   
    13     4    25 1   
    14     5    11 1   
    15     5    26 1   
    16     5    35 1   
    17     6     7 ar  
    18     6    12 1   
    19     6    15 ar  
    20     7     8 ar  
    21     7    18 1   
    22     8    13 1   
    23     8    14 ar  
    24     9    10 1   
    25     9    13 1   
    26     9    27 1   
    27     9    28 1   
    28    10    11 1   
    29    10    29 1   
    30    10    30 1   
    31    11    31 1   
    32    11    32 1   
    33    12    33 1   
    34    12    34 1   
    35    22    35 1   
    36    23    35 1   
@<TRIPOS>SUBSTRUCTURE
     1 S4F         1 TEMP              0 ****  ****    0 ROOT
