@<TRIPOS>MOLECULE
S4F
   35    36     1     0     0
SMALL
abcg2


@<TRIPOS>ATOM
      1 C18        -42.3120   -32.3360    -5.0220 ca         1 S4F       0.189900
      2 C14        -43.2180   -32.3610     1.4200 c          1 S4F       0.702000
      3 C13        -44.5080   -31.7670     0.8260 c3         1 S4F      -0.203400
      4 C11        -44.7100   -33.2420    -1.8810 c6         1 S4F       0.213800
      5 C10        -45.0970   -33.8790    -0.5430 c6         1 S4F      -0.069700
      6 C02        -41.7880   -34.4860    -5.5380 ca         1 S4F       0.402900
      7 C03        -42.6570   -34.9090    -4.5190 ca         1 S4F      -0.119000
      8 C05        -43.4010   -33.9490    -3.8160 ca         1 S4F       0.428900
      9 C07        -45.3730   -35.2460    -3.1020 c6         1 S4F       0.219800
     10 C08        -45.7700   -35.9600    -1.8190 c6         1 S4F      -0.080400
     11 C09        -46.1740   -34.9470    -0.7490 c6         1 S4F      -0.074400
     12 N01        -41.0750   -35.3460    -6.2920 nv         1 S4F      -1.086900
     13 N06        -44.3060   -34.2720    -2.8380 nh         1 S4F      -0.759300
     14 N17        -43.1830   -32.6380    -4.0720 nb         1 S4F      -0.264000
     15 N19        -41.6300   -33.1690    -5.7940 nb         1 S4F      -0.301000
     16 O15        -43.3440   -33.0950     2.4370 o          1 S4F      -0.742500
     17 O16        -42.1280   -32.0700     0.8580 o          1 S4F      -0.742500
     18 CL04       -42.6560   -36.6030    -4.0850 cl         1 S4F      -0.215000
     19 H181       -42.1470   -31.2770    -5.2000 h5         1 S4F       0.041100
     20 H131       -44.2580   -31.1600    -0.0450 hc         1 S4F       0.021700
     21 H132       -44.9370   -31.0930     1.5750 hc         1 S4F       0.021700
     22 H122       -46.4510   -32.3290     0.0790 hc         1 S4F       0.019200
     23 H121       -45.8570   -33.3420     1.3840 hc         1 S4F       0.019200
     24 H111       -43.8800   -32.5560    -1.7500 h1         1 S4F       0.060700
     25 H112       -45.5590   -32.6640    -2.2730 h1         1 S4F       0.060700
     26 H101       -44.2000   -34.3710    -0.1490 hc         1 S4F       0.092700
     27 H071       -46.2390   -34.7000    -3.5010 h1         1 S4F       0.034200
     28 H072       -45.0550   -35.9500    -3.8620 h1         1 S4F       0.034200
     29 H082       -46.5940   -36.6450    -2.0310 hc         1 S4F       0.042700
     30 H081       -44.9240   -36.5600    -1.4710 hc         1 S4F       0.042700
     31 H091       -47.1040   -34.4550    -1.0560 hc         1 S4F       0.031700
     32 H092       -46.3790   -35.4510     0.1990 hc         1 S4F       0.031700
     33 H012       -40.3700   -34.9750    -6.9050 hn         1 S4F       0.494500
     34 H011       -41.0600   -36.3290    -6.0800 hn         1 S4F       0.494500
     35 C12        -45.5560   -32.8250     0.4700 c3         1 S4F      -0.040400
@<TRIPOS>BOND
     1     1    14 ar  
     2     1    15 ar  
     3     1    19 1   
     4     2     3 1   
     5     2    16 1   
     6     2    17 1   
     7     3    20 1   
     8     3    21 1   
     9     3    35 1   
    10     4     5 1   
    11     4    13 1   
    12     4    24 1   
    13     4    25 1   
    14     5    11 1   
    15     5    26 1   
    16     5    35 1   
    17     6     7 ar  
    18     6    12 1   
    19     6    15 ar  
    20     7     8 ar  
    21     7    18 1   
    22     8    13 1   
    23     8    14 ar  
    24     9    10 1   
    25     9    13 1   
    26     9    27 1   
    27     9    28 1   
    28    10    11 1   
    29    10    29 1   
    30    10    30 1   
    31    11    31 1   
    32    11    32 1   
    33    12    33 1   
    34    12    34 1   
    35    22    35 1   
    36    23    35 1   
@<TRIPOS>SUBSTRUCTURE
     1 S4F         1 TEMP              0 ****  ****    0 ROOT
