@<TRIPOS>MOLECULE
S4H
    6     5     1     0     0
SMALL
No Charge or Current Charge


@<TRIPOS>ATOM
      1 S1           1.7220    -0.9850    -0.1360 sh         1 S4H      -0.149700
      2 S2          -0.0520     0.0800     0.6470 s4         1 S4H      -0.153700
      3 S3          -0.0540     1.9300    -0.2950 s          1 S4H      -0.059500
      4 S4          -1.7330    -1.0450    -0.2500 sh         1 S4H      -0.149700
      5 HS1          2.6350    -0.1380     0.4000 hs         1 S4H       0.255800
      6 HS4         -2.7080    -0.2310     0.2250 hs         1 S4H       0.255800
@<TRIPOS>BOND
     1     1     2 1   
     2     1     5 1   
     3     2     3 2   
     4     2     4 1   
     5     4     6 1   
@<TRIPOS>SUBSTRUCTURE
     1 S4H         1 TEMP              0 ****  ****    0 ROOT
