@<TRIPOS>MOLECULE
S4H
    6     5     1     0     0
SMALL
bcc


@<TRIPOS>ATOM
      1 S1           1.5560    -0.8340    -0.3570 sh         1 S4H      -0.149700
      2 S2          -0.0010     0.3210     0.5520 s4         1 S4H      -0.153700
      3 S3          -0.2370     2.0290    -0.3290 s          1 S4H      -0.059500
      4 S4          -1.4680    -1.0890    -0.1280 sh         1 S4H      -0.149700
      5 HS1          2.4500    -0.4960     0.5810 hs         1 S4H       0.255800
      6 HS4         -2.4910    -0.3190     0.2720 hs         1 S4H       0.255800
@<TRIPOS>BOND
     1     1     2 1   
     2     1     5 1   
     3     2     3 2   
     4     2     4 1   
     5     4     6 1   
@<TRIPOS>SUBSTRUCTURE
     1 S4H         1 TEMP              0 ****  ****    0 ROOT
