@<TRIPOS>MOLECULE
S4I
   26    27     1     0     0
SMALL
abcg2


@<TRIPOS>ATOM
      1 N3           6.9790     7.3160    17.4480 n          1 S4I      -0.423800
      2 C4           7.2620     5.8900    17.3550 c5         1 S4I      -0.006000
      3 C5           7.1010     5.6080    15.8750 c          1 S4I       0.532100
      4 C8           7.1960     8.0440    18.6840 c3         1 S4I       0.156300
      5 C10          6.7900     7.3140    21.0610 ca         1 S4I      -0.090500
      6 C13          4.0580     7.0660    20.6060 ca         1 S4I      -0.101500
      7 C1           6.3360     6.7780    15.2740 c5         1 S4I      -0.016700
      8 OA           6.7290     7.1710    13.9890 oh         1 S4I      -0.606000
      9 C2           6.5420     7.8890    16.3030 c          1 S4I       0.576000
     10 O6           6.3180     9.0760    16.1210 o          1 S4I      -0.508000
     11 O7           7.5330     4.6570    15.2760 o          1 S4I      -0.477100
     12 C9           6.2790     7.5910    19.7970 ca         1 S4I      -0.113300
     13 C11          5.9540     6.9240    22.1020 ca         1 S4I      -0.101500
     14 C12          4.5940     6.8040    21.8610 ca         1 S4I       0.128000
     15 C14          4.9070     7.4600    19.5810 ca         1 S4I      -0.090500
     16 CL15         3.5300     6.3080    23.1620 cl         1 S4I      -0.207000
     17 H1           8.2750     5.6570    17.6920 h1         1 S4I       0.081200
     18 H2           6.5560     5.2900    17.9380 h1         1 S4I       0.081200
     19 H3           8.2370     7.9210    18.9900 h1         1 S4I       0.072700
     20 H4           7.0340     9.0990    18.4590 h1         1 S4I       0.072700
     21 H6           2.9950     6.9650    20.4340 ha         1 S4I       0.133000
     22 H7           5.2680     6.5100    15.3200 h1         1 S4I       0.075700
     23 H8           6.4430     6.4960    13.3580 ho         1 S4I       0.462000
     24 H9           6.3560     6.7100    23.0830 ha         1 S4I       0.133000
     25 H10          4.4930     7.6640    18.6010 ha         1 S4I       0.120500
     26 H5           7.8550     7.4000    21.2400 ha         1 S4I       0.120500
@<TRIPOS>BOND
     1     1     2 1   
     2     1     4 1   
     3     1     9 1   
     4     2     3 1   
     5     2    17 1   
     6     2    18 1   
     7     3     7 1   
     8     3    11 2   
     9     4    12 1   
    10     4    19 1   
    11     4    20 1   
    12     5    12 ar  
    13     5    13 ar  
    14     5    26 1   
    15     6    14 ar  
    16     6    15 ar  
    17     6    21 1   
    18     7     8 1   
    19     7     9 1   
    20     7    22 1   
    21     8    23 1   
    22     9    10 2   
    23    12    15 ar  
    24    13    14 ar  
    25    13    24 1   
    26    14    16 1   
    27    15    25 1   
@<TRIPOS>SUBSTRUCTURE
     1 S4I         1 TEMP              0 ****  ****    0 ROOT
