@<TRIPOS>MOLECULE
S4I
   26    27     1     0     0
SMALL
No Charge or Current Charge


@<TRIPOS>ATOM
      1 N3           7.0120     7.3180    17.4780 n          1 S4I      -0.423800
      2 C4           7.8250     6.1150    17.2770 c5         1 S4I      -0.006000
      3 C5           7.4870     5.6050    15.8740 c          1 S4I       0.532100
      4 C8           7.0840     8.1860    18.6680 c3         1 S4I       0.156300
      5 C10          6.6140     6.7760    20.7290 ca         1 S4I      -0.090500
      6 C13          3.9910     7.7720    20.8980 ca         1 S4I      -0.101500
      7 C1           6.2770     6.4450    15.3700 c5         1 S4I      -0.016700
      8 OA           6.4860     6.9510    14.0180 oh         1 S4I      -0.606000
      9 C2           6.1370     7.5920    16.4200 c          1 S4I       0.576000
     10 O6           5.3990     8.5680    16.3710 o          1 S4I      -0.508000
     11 O7           8.0760     4.7280    15.2510 o          1 S4I      -0.477100
     12 C9           6.1610     7.7180    19.7840 ca         1 S4I      -0.113300
     13 C11          5.7580     6.3370    21.7550 ca         1 S4I      -0.101500
     14 C12          4.4480     6.8360    21.8390 ca         1 S4I       0.128000
     15 C14          4.8450     8.2130    19.8720 ca         1 S4I      -0.090500
     16 Cl15         3.3790     6.2850    23.1220 cl         1 S4I      -0.207000
     17 H1           8.8990     6.3340    17.3270 h1         1 S4I       0.081200
     18 H2           7.5760     5.3330    18.0060 h1         1 S4I       0.081200
     19 H3           8.1190     8.1970    19.0340 h1         1 S4I       0.072700
     20 H4           6.8350     9.2190    18.3910 h1         1 S4I       0.072700
     21 H6           2.9760     8.1560    20.9640 ha         1 S4I       0.133000
     22 H7           5.3780     5.8180    15.4390 h1         1 S4I       0.075700
     23 H8           6.6390     6.1780    13.4260 ho         1 S4I       0.462000
     24 H9           6.1090     5.6100    22.4840 ha         1 S4I       0.133000
     25 H10          4.4830     8.9360    19.1440 ha         1 S4I       0.120500
     26 H5           7.6270     6.3830    20.6690 ha         1 S4I       0.120500
@<TRIPOS>BOND
     1     1     2 1   
     2     1     4 1   
     3     1     9 1   
     4     2     3 1   
     5     2    17 1   
     6     2    18 1   
     7     3     7 1   
     8     3    11 2   
     9     4    12 1   
    10     4    19 1   
    11     4    20 1   
    12     5    12 ar  
    13     5    13 ar  
    14     5    26 1   
    15     6    14 ar  
    16     6    15 ar  
    17     6    21 1   
    18     7     8 1   
    19     7     9 1   
    20     7    22 1   
    21     8    23 1   
    22     9    10 2   
    23    12    15 ar  
    24    13    14 ar  
    25    13    24 1   
    26    14    16 1   
    27    15    25 1   
@<TRIPOS>SUBSTRUCTURE
     1 S4I         1 TEMP              0 ****  ****    0 ROOT
