@<TRIPOS>MOLECULE
S4K
   64    69     1     0     0
SMALL
abcg2


@<TRIPOS>ATOM
      1 C1          14.1010   -35.7140     3.6610 cc         1 S4K       0.231800
      2 C2          13.5940   -35.8620     4.9470 cd         1 S4K      -0.402400
      3 C3          12.2570   -36.3930     4.8260 c          1 S4K       0.579200
      4 C7          10.2090   -39.1080     1.5550 ca         1 S4K      -0.140500
      5 C8           8.9280   -38.5930     1.6480 ca         1 S4K       0.175000
      6 C9           8.6390   -37.4200     2.3240 ca         1 S4K      -0.140500
      7 C10          9.6850   -36.7250     2.9150 ca         1 S4K      -0.073500
      8 C11         14.2710   -35.5500     6.2080 c          1 S4K       0.667300
      9 C12         13.7990   -35.5870     8.6580 ca         1 S4K       0.020000
     10 C13         14.9120   -34.8640     9.1080 ca         1 S4K      -0.146000
     11 C14         15.1060   -34.6610    10.4670 ca         1 S4K      -0.084000
     12 C15         14.2180   -35.1720    11.4010 ca         1 S4K       0.020100
     13 C16         13.1230   -35.8920    10.9440 ca         1 S4K       0.199000
     14 C19         16.2190   -36.4160    13.0300 ca         1 S4K      -0.263000
     15 C20         17.2870   -36.8310    13.8310 ca         1 S4K       0.382900
     16 C21         16.8830   -35.2130    15.3310 ca         1 S4K       0.386500
     17 C22         15.7900   -34.6610    14.6060 ca         1 S4K      -0.144800
     18 C24         16.0830   -33.4780    16.4950 cc         1 S4K      -0.152100
     19 C27         13.0740   -31.1540    13.4620 ca         1 S4K      -0.113000
     20 C30         13.3350   -32.1560    16.0370 ca         1 S4K      -0.094500
     21 F1          12.2490   -36.3950    11.8440 f          1 S4K      -0.164000
     22 O2          14.3380   -34.9100    12.7510 os         1 S4K      -0.223200
     23 C18         15.4490   -35.3290    13.4260 ca         1 S4K       0.211100
     24 C23         15.2950   -33.5400    15.3690 cd         1 S4K      -0.054400
     25 C25         14.2190   -32.5940    15.0430 ca         1 S4K      -0.010800
     26 C29         12.3370   -31.2310    15.7490 ca         1 S4K      -0.113000
     27 C28         12.1990   -30.7290    14.4590 ca         1 S4K      -0.112000
     28 C26         14.0740   -32.0740    13.7510 ca         1 S4K      -0.094500
     29 N4          17.0290   -34.4740    16.4730 na         1 S4K      -0.329400
     30 N3          17.6330   -36.2580    14.9850 nb         1 S4K      -0.702000
     31 C17         12.8990   -36.1030     9.6010 ca         1 S4K      -0.201000
     32 N2          13.5010   -35.8090     7.3120 ns         1 S4K      -0.151000
     33 O1          15.4160   -35.0950     6.2700 o          1 S4K      -0.618100
     34 O           11.4340   -36.7330     5.6920 o          1 S4K      -0.568000
     35 N           12.0310   -36.5040     3.4630 n          1 S4K      -0.172400
     36 N1          13.1850   -36.1430     2.7740 na         1 S4K      -0.406400
     37 C4          13.0950   -35.8040     1.3630 c3         1 S4K       0.211100
     38 C           15.4000   -35.1490     3.2080 c3         1 S4K      -0.071900
     39 C5          10.9810   -37.2240     2.8380 ca         1 S4K       0.026600
     40 C6          11.2450   -38.4180     2.1710 ca         1 S4K      -0.073500
     41 H1          10.3870   -40.0310     1.0200 ha         1 S4K       0.141500
     42 H2           7.6220   -37.0550     2.3700 ha         1 S4K       0.141500
     43 H3           9.5010   -35.7940     3.4330 ha         1 S4K       0.134500
     44 H4          15.6090   -34.4570     8.3960 ha         1 S4K       0.154000
     45 H5          15.9590   -34.0930    10.8140 ha         1 S4K       0.130000
     46 H6          15.9920   -36.9510    12.1200 ha         1 S4K       0.135000
     47 H7          17.8810   -37.6830    13.5180 h4         1 S4K       0.020100
     48 H8          16.0540   -32.7670    17.3050 h4         1 S4K       0.219000
     49 H9          12.9810   -30.7650    12.4560 ha         1 S4K       0.110000
     50 H10         13.4220   -32.5570    17.0390 ha         1 S4K       0.112500
     51 H11         11.6610   -30.9100    16.5320 ha         1 S4K       0.110000
     52 H12         11.4190   -30.0130    14.2310 ha         1 S4K       0.109000
     53 H13         14.7550   -32.3870    12.9720 ha         1 S4K       0.112500
     54 H14         17.7420   -34.6230    17.1690 hn         1 S4K       0.363000
     55 H15         12.0300   -36.6690     9.2900 ha         1 S4K       0.141000
     56 H16         12.5910   -36.2230     7.1020 hn         1 S4K       0.194000
     57 H17         14.0840   -35.5170     1.0220 h1         1 S4K       0.063700
     58 H18         12.7610   -36.6640     0.7890 h1         1 S4K       0.063700
     59 H19         12.4020   -34.9740     1.2190 h1         1 S4K       0.063700
     60 H20         16.0690   -35.0650     4.0580 hc         1 S4K       0.077700
     61 H21         15.8530   -35.7790     2.4420 hc         1 S4K       0.077700
     62 H22         15.2520   -34.1540     2.7800 hc         1 S4K       0.077700
     63 H23         12.2550   -38.8020     2.1300 ha         1 S4K       0.134500
     64 F            7.9140   -39.2630     1.0490 f          1 S4K      -0.175000
@<TRIPOS>BOND
     1     1     2 2   
     2     1    36 1   
     3     1    38 1   
     4     2     3 1   
     5     2     8 1   
     6     3    34 2   
     7     3    35 1   
     8     4     5 ar  
     9     4    40 ar  
    10     4    41 1   
    11     5     6 ar  
    12     5    64 1   
    13     6     7 ar  
    14     6    42 1   
    15     7    39 ar  
    16     7    43 1   
    17     8    32 1   
    18     8    33 2   
    19     9    10 ar  
    20     9    31 ar  
    21     9    32 1   
    22    10    11 ar  
    23    10    44 1   
    24    11    12 ar  
    25    11    45 1   
    26    12    13 ar  
    27    12    22 1   
    28    13    21 1   
    29    13    31 ar  
    30    14    15 ar  
    31    14    23 ar  
    32    14    46 1   
    33    15    30 ar  
    34    15    47 1   
    35    16    17 ar  
    36    16    29 1   
    37    16    30 ar  
    38    17    23 ar  
    39    17    24 1   
    40    18    24 2   
    41    18    29 1   
    42    18    48 1   
    43    19    27 ar  
    44    19    28 ar  
    45    19    49 1   
    46    20    25 ar  
    47    20    26 ar  
    48    20    50 1   
    49    22    23 1   
    50    24    25 1   
    51    25    28 ar  
    52    26    27 ar  
    53    26    51 1   
    54    27    52 1   
    55    28    53 1   
    56    29    54 1   
    57    31    55 1   
    58    32    56 1   
    59    35    36 1   
    60    35    39 1   
    61    36    37 1   
    62    37    57 1   
    63    37    58 1   
    64    37    59 1   
    65    38    60 1   
    66    38    61 1   
    67    38    62 1   
    68    39    40 ar  
    69    40    63 1   
@<TRIPOS>SUBSTRUCTURE
     1 S4K         1 TEMP              0 ****  ****    0 ROOT
