@<TRIPOS>MOLECULE
S4K
   64    69     1     0     0
SMALL
No Charge or Current Charge


@<TRIPOS>ATOM
      1 C1          14.2830   -35.8580     3.7000 cc         1 S4K       0.231800
      2 C2          13.6890   -35.9650     4.9390 cd         1 S4K      -0.402400
      3 C3          12.3130   -36.4020     4.8340 c          1 S4K       0.579200
      4 C7           9.9360   -38.6460     1.1850 ca         1 S4K      -0.140500
      5 C8           8.6540   -38.3060     1.6420 ca         1 S4K       0.175000
      6 C9           8.4990   -37.4000     2.7010 ca         1 S4K      -0.140500
      7 C10          9.6320   -36.8270     3.3070 ca         1 S4K      -0.073500
      8 C11         14.3790   -35.6590     6.2140 c          1 S4K       0.667300
      9 C12         13.8520   -35.6500     8.7330 ca         1 S4K       0.020000
     10 C13         15.0640   -35.1380     9.2510 ca         1 S4K      -0.146000
     11 C14         15.2400   -34.9820    10.6380 ca         1 S4K      -0.084000
     12 C15         14.2090   -35.3420    11.5280 ca         1 S4K       0.020100
     13 C16         12.9960   -35.8350    11.0130 ca         1 S4K       0.199000
     14 C19         16.3710   -36.4560    13.2340 ca         1 S4K      -0.263000
     15 C20         17.5150   -36.7000    14.0110 ca         1 S4K       0.382900
     16 C21         17.0480   -34.9080    15.3790 ca         1 S4K       0.386500
     17 C22         15.9400   -34.5590    14.6360 ca         1 S4K      -0.144800
     18 C24         16.0630   -33.1280    16.4630 cc         1 S4K      -0.152100
     19 C27         12.7300   -31.6620    13.1430 ca         1 S4K      -0.113000
     20 C30         13.3360   -32.0340    15.8550 ca         1 S4K      -0.094500
     21 F1          11.9860   -36.1680    11.8490 f          1 S4K      -0.164000
     22 O2          14.3550   -35.1760    12.8900 os         1 S4K      -0.223200
     23 C18         15.5490   -35.3600    13.5470 ca         1 S4K       0.211100
     24 C23         15.3660   -33.3840    15.2930 cd         1 S4K      -0.054400
     25 C25         14.1640   -32.6290    14.8780 ca         1 S4K      -0.010800
     26 C29         12.2020   -31.2920    15.4830 ca         1 S4K      -0.113000
     27 C28         11.8920   -31.1120    14.1260 ca         1 S4K      -0.112000
     28 C26         13.8620   -32.4050    13.5180 ca         1 S4K      -0.094500
     29 N4          17.1250   -34.0530    16.4550 na         1 S4K      -0.329400
     30 N3          17.8470   -35.9490    15.0870 nb         1 S4K      -0.702000
     31 C17         12.8220   -35.9910     9.6290 ca         1 S4K      -0.201000
     32 N2          13.5990   -35.8340     7.3470 ns         1 S4K      -0.151000
     33 O1          15.5430   -35.2840     6.2550 o          1 S4K      -0.618100
     34 O           11.5140   -36.6220     5.7340 o          1 S4K      -0.568000
     35 N           12.0890   -36.5700     3.4710 n          1 S4K      -0.172400
     36 N1          13.2990   -36.2050     2.7630 na         1 S4K      -0.406400
     37 C4          13.1450   -35.6960     1.3750 c3         1 S4K       0.211100
     38 C           15.6680   -35.4070     3.3140 c3         1 S4K      -0.071900
     39 C5          10.9270   -37.1560     2.8520 ca         1 S4K       0.026600
     40 C6          11.0700   -38.0730     1.7890 ca         1 S4K      -0.073500
     41 H1          10.0490   -39.3540     0.3680 ha         1 S4K       0.141500
     42 H2           7.5020   -37.1410     3.0500 ha         1 S4K       0.141500
     43 H3           9.5010   -36.1180     4.1200 ha         1 S4K       0.134500
     44 H4          15.8810   -34.8490     8.5970 ha         1 S4K       0.154000
     45 H5          16.1750   -34.5740    11.0150 ha         1 S4K       0.130000
     46 H6          16.1220   -37.1280    12.4190 ha         1 S4K       0.135000
     47 H7          18.1650   -37.5450    13.7900 h4         1 S4K       0.020100
     48 H8          15.9270   -32.3730    17.2330 h4         1 S4K       0.219000
     49 H9          12.5120   -31.4990    12.0900 ha         1 S4K       0.110000
     50 H10         13.5540   -32.1680    16.9120 ha         1 S4K       0.112500
     51 H11         11.5630   -30.8560    16.2480 ha         1 S4K       0.110000
     52 H12         11.0170   -30.5350    13.8370 ha         1 S4K       0.109000
     53 H13         14.5330   -32.7610    12.7430 ha         1 S4K       0.112500
     54 H14         17.8520   -34.1200    17.1570 hn         1 S4K       0.363000
     55 H15         11.8770   -36.3790     9.2550 ha         1 S4K       0.141000
     56 H16         12.6610   -36.1570     7.1440 hn         1 S4K       0.194000
     57 H17         13.7680   -34.8050     1.2310 h1         1 S4K       0.063700
     58 H18         13.4580   -36.4670     0.6610 h1         1 S4K       0.063700
     59 H19         12.1020   -35.4210     1.1760 h1         1 S4K       0.063700
     60 H20         16.4290   -35.9960     3.8370 hc         1 S4K       0.077700
     61 H21         15.8480   -35.5270     2.2400 hc         1 S4K       0.077700
     62 H22         15.8170   -34.3510     3.5660 hc         1 S4K       0.077700
     63 H23         12.0610   -38.3560     1.4410 ha         1 S4K       0.134500
     64 F            7.5660   -38.8570     1.0620 f          1 S4K      -0.175000
@<TRIPOS>BOND
     1     1     2 2   
     2     1    36 1   
     3     1    38 1   
     4     2     3 1   
     5     2     8 1   
     6     3    34 2   
     7     3    35 1   
     8     4     5 ar  
     9     4    40 ar  
    10     4    41 1   
    11     5     6 ar  
    12     5    64 1   
    13     6     7 ar  
    14     6    42 1   
    15     7    39 ar  
    16     7    43 1   
    17     8    32 1   
    18     8    33 2   
    19     9    10 ar  
    20     9    31 ar  
    21     9    32 1   
    22    10    11 ar  
    23    10    44 1   
    24    11    12 ar  
    25    11    45 1   
    26    12    13 ar  
    27    12    22 1   
    28    13    21 1   
    29    13    31 ar  
    30    14    15 ar  
    31    14    23 ar  
    32    14    46 1   
    33    15    30 ar  
    34    15    47 1   
    35    16    17 ar  
    36    16    29 1   
    37    16    30 ar  
    38    17    23 ar  
    39    17    24 1   
    40    18    24 2   
    41    18    29 1   
    42    18    48 1   
    43    19    27 ar  
    44    19    28 ar  
    45    19    49 1   
    46    20    25 ar  
    47    20    26 ar  
    48    20    50 1   
    49    22    23 1   
    50    24    25 1   
    51    25    28 ar  
    52    26    27 ar  
    53    26    51 1   
    54    27    52 1   
    55    28    53 1   
    56    29    54 1   
    57    31    55 1   
    58    32    56 1   
    59    35    36 1   
    60    35    39 1   
    61    36    37 1   
    62    37    57 1   
    63    37    58 1   
    64    37    59 1   
    65    38    60 1   
    66    38    61 1   
    67    38    62 1   
    68    39    40 ar  
    69    40    63 1   
@<TRIPOS>SUBSTRUCTURE
     1 S4K         1 TEMP              0 ****  ****    0 ROOT
