@<TRIPOS>MOLECULE
S4M
   48    49     1     0     0
SMALL
No Charge or Current Charge


@<TRIPOS>ATOM
      1 CA           5.4370     2.3490    -3.9410 c3         1 S4M      -0.090000
      2 N            5.3440     2.9570    -5.2740 n8         1 S4M      -0.308000
      3 CB           4.8240     3.2700    -2.8710 c3         1 S4M      -0.199000
      4 CG           4.9050     2.6380    -1.4490 c3         1 S4M      -0.382000
      5 SD           3.9680     3.5590    -0.1260 s4         1 S4M       1.138000
      6 CE           5.2740     4.8870     0.1060 c3         1 S4M      -0.690000
      7 C5           3.0970     1.9930     2.5280 c2         1 S4M      -0.663000
      8 C4           1.7110     1.4450     2.2270 c5         1 S4M       0.075000
      9 O4           1.2510     2.1250     1.0420 os         1 S4M      -0.284000
     10 C1           0.7500     1.1580     0.0810 c5         1 S4M       0.180000
     11 C2           0.5320    -0.1480     0.9100 c5         1 S4M      -0.036000
     12 O2          -0.6930    -0.0930     1.6470 oh         1 S4M      -0.310000
     13 C3           1.7800    -0.0570     1.8310 c5         1 S4M      -0.049000
     14 O3           1.7140    -0.9460     2.9460 oh         1 S4M      -0.312000
     15 N9           1.7000     1.1050    -1.0470 na         1 S4M      -0.195000
     16 C8           2.1650    -0.1310    -1.6300 c2         1 S4M      -0.044000
     17 N7           2.2110    -0.0730    -2.9250 n2         1 S4M      -0.138000
     18 C7           1.7720     1.0810    -3.2590 c2         1 S4M      -0.239000
     19 C6           1.5980     1.6460    -4.4660 c2         1 S4M       0.258000
     20 N6           1.9420     0.9000    -5.5810 nv         1 S4M      -0.354000
     21 C9           1.4380     1.8130    -2.2260 c2         1 S4M       0.056000
     22 N3           0.9650     3.0100    -2.3040 n2         1 S4M      -0.219000
     23 C10          0.7930     3.5540    -3.4860 c2         1 S4M       0.043000
     24 N1           1.1200     2.8510    -4.5500 n2         1 S4M      -0.304000
     25 HA1          6.4950     2.1580    -3.7150 h1         1 S4M       0.095500
     26 HA2          4.9050     1.3880    -3.9580 h1         1 S4M       0.095500
     27 HN1          5.8240     3.8570    -5.2770 hn         1 S4M       0.135000
     28 HN2          4.3670     3.1570    -5.4930 hn         1 S4M       0.135000
     29 HB1          3.7750     3.4640    -3.1280 hc         1 S4M       0.090500
     30 HB2          5.3380     4.2400    -2.8860 hc         1 S4M       0.090500
     31 HG1          4.4660     1.6340    -1.4590 h1         1 S4M       0.137000
     32 HG2          5.9430     2.5600    -1.1040 h1         1 S4M       0.137000
     33 HSD          3.3450     4.3320    -1.1020 hs         1 S4M      -0.036000
     34 HE1          5.7690     5.0840    -0.8510 h1         1 S4M       0.080667
     35 HE2          4.7760     5.7920     0.4700 h1         1 S4M       0.080667
     36 HE3          5.9980     4.5260     0.8460 h1         1 S4M       0.080667
     37 H5'1         3.9950     1.3910     2.3960 ha         1 S4M       0.081000
     38 H5'2         3.2260     2.9440     3.0420 ha         1 S4M       0.081000
     39 H4           0.9890     1.6200     3.0390 h1         1 S4M       0.100000
     40 H1          -0.2030     1.5040    -0.3430 h2         1 S4M       0.158000
     41 H2           0.5480    -1.0450     0.2770 h1         1 S4M       0.116000
     42 HO2         -0.5860    -0.6780     2.4200 ho         1 S4M       0.223000
     43 H3           2.6950    -0.2550     1.2560 h1         1 S4M       0.096000
     44 HO3          1.8210    -1.8530     2.6030 ho         1 S4M       0.211000
     45 H8           2.4580    -1.0000    -1.0340 h5         1 S4M       0.200000
     46 HN61         2.4880     0.0640    -5.4270 hn         1 S4M       0.246500
     47 HN62         2.0310     1.3850    -6.4640 hn         1 S4M       0.246500
     48 H6           0.3900     4.5680    -3.5820 h5         1 S4M       0.183000
@<TRIPOS>BOND
     1     1     2 1   
     2     1     3 1   
     3     1    25 1   
     4     1    26 1   
     5     2    27 1   
     6     2    28 1   
     7     3     4 1   
     8     3    29 1   
     9     3    30 1   
    10     4     5 1   
    11     4    31 1   
    12     4    32 1   
    13     5     6 1   
    14     5    33 1   
    15     6    34 1   
    16     6    35 1   
    17     6    36 1   
    18     7     8 1   
    19     7    37 1   
    20     7    38 1   
    21     8     9 1   
    22     8    13 1   
    23     8    39 1   
    24     9    10 1   
    25    10    11 1   
    26    10    15 1   
    27    10    40 1   
    28    11    12 1   
    29    11    13 1   
    30    11    41 1   
    31    12    42 1   
    32    13    14 1   
    33    13    43 1   
    34    14    44 1   
    35    15    16 1   
    36    15    21 1   
    37    16    17 1   
    38    16    45 1   
    39    17    18 1   
    40    18    19 1   
    41    18    21 1   
    42    19    20 1   
    43    19    24 1   
    44    20    46 1   
    45    20    47 1   
    46    21    22 1   
    47    22    23 1   
    48    23    24 1   
    49    23    48 1   
@<TRIPOS>SUBSTRUCTURE
     1 S4M         1 TEMP              0 ****  ****    0 ROOT
