@<TRIPOS>MOLECULE
S4M
   48    49     1     0     0
SMALL
bcc


@<TRIPOS>ATOM
      1 CA           7.5240     2.3380    -2.1410 c3         1 S4M      -0.090000
      2 N            7.5520     2.4040    -3.5910 n8         1 S4M      -0.308000
      3 CB           6.2580     2.8980    -1.4900 c3         1 S4M      -0.199000
      4 CG           6.3130     2.7820     0.0220 c3         1 S4M      -0.382000
      5 SD           4.8320     3.4370     0.8470 s4         1 S4M       1.138000
      6 CE           5.5850     5.2820     0.8080 c3         1 S4M      -0.690000
      7 C5           3.9220     1.5390     0.5910 c2         1 S4M      -0.663000
      8 C4           2.4570     1.6990     0.8660 c5         1 S4M       0.075000
      9 O4           1.8690     2.5900    -0.1070 os         1 S4M      -0.284000
     10 C1           0.6280     2.1370    -0.5360 c5         1 S4M       0.180000
     11 C2           0.2160     1.0060     0.4060 c5         1 S4M      -0.036000
     12 O2          -0.4200     1.5840     1.5130 oh         1 S4M      -0.310000
     13 C3           1.5880     0.4410     0.7870 c5         1 S4M      -0.049000
     14 O3           1.6010    -0.2230     2.0210 oh         1 S4M      -0.312000
     15 N9           0.7440     1.6610    -1.9150 na         1 S4M      -0.195000
     16 C8           1.8770     1.4310    -2.6440 c2         1 S4M      -0.044000
     17 N7           1.6370     1.0160    -3.8540 n2         1 S4M      -0.138000
     18 C7           0.2710     0.9680    -3.9330 c2         1 S4M      -0.239000
     19 C6          -0.6200     0.6050    -4.9600 c2         1 S4M       0.258000
     20 N6          -0.2100     0.2040    -6.1640 nv         1 S4M      -0.354000
     21 C9          -0.3030     1.3680    -2.7370 c2         1 S4M       0.056000
     22 N3          -1.6060     1.4440    -2.4670 n2         1 S4M      -0.219000
     23 C10         -2.3390     1.0800    -3.5050 c2         1 S4M       0.043000
     24 N1          -1.9310     0.6740    -4.7050 n2         1 S4M      -0.304000
     25 HA1          8.3950     2.8750    -1.7530 h1         1 S4M       0.095500
     26 HA2          7.6520     1.2940    -1.8420 h1         1 S4M       0.095500
     27 HN1          7.4400     3.3650    -3.8910 hn         1 S4M       0.135000
     28 HN2          6.7550     1.9040    -3.9670 hn         1 S4M       0.135000
     29 HB1          5.3880     2.3580    -1.8740 hc         1 S4M       0.090500
     30 HB2          6.1380     3.9460    -1.7810 hc         1 S4M       0.090500
     31 HG1          6.3940     1.7410     0.3350 h1         1 S4M       0.137000
     32 HG2          7.1570     3.3420     0.4280 h1         1 S4M       0.137000
     33 HSD          3.9510     3.8560    -0.0670 hs         1 S4M      -0.036000
     34 HE1          5.9510     5.5980    -0.1700 h1         1 S4M       0.080667
     35 HE2          4.7710     5.9410     1.1150 h1         1 S4M       0.080667
     36 HE3          6.3940     5.3560     1.5370 h1         1 S4M       0.080667
     37 H5'1         4.0970     1.0660    -0.3830 ha         1 S4M       0.081000
     38 H5'2         4.3690     0.9050     1.3620 ha         1 S4M       0.081000
     39 H4           2.3200     2.1470     1.8610 h1         1 S4M       0.100000
     40 H1          -0.1040     2.9490    -0.5370 h2         1 S4M       0.158000
     41 H2          -0.4270     0.2720    -0.0940 h1         1 S4M       0.116000
     42 HO2         -0.2190     1.0360     2.2820 ho         1 S4M       0.223000
     43 H3           1.9510    -0.2080    -0.0200 h1         1 S4M       0.096000
     44 HO3          1.2990    -1.1280     1.8920 ho         1 S4M       0.211000
     45 H8           2.8610     1.5950    -2.2340 h5         1 S4M       0.200000
     46 HN61         0.7680     0.1190    -6.3790 hn         1 S4M       0.246500
     47 HN62        -0.8780    -0.0780    -6.8600 hn         1 S4M       0.246500
     48 H6          -3.4150     1.1130    -3.3650 h5         1 S4M       0.183000
@<TRIPOS>BOND
     1     1     2 1   
     2     1     3 1   
     3     1    25 1   
     4     1    26 1   
     5     2    27 1   
     6     2    28 1   
     7     3     4 1   
     8     3    29 1   
     9     3    30 1   
    10     4     5 1   
    11     4    31 1   
    12     4    32 1   
    13     5     6 1   
    14     5    33 1   
    15     6    34 1   
    16     6    35 1   
    17     6    36 1   
    18     7     8 1   
    19     7    37 1   
    20     7    38 1   
    21     8     9 1   
    22     8    13 1   
    23     8    39 1   
    24     9    10 1   
    25    10    11 1   
    26    10    15 1   
    27    10    40 1   
    28    11    12 1   
    29    11    13 1   
    30    11    41 1   
    31    12    42 1   
    32    13    14 1   
    33    13    43 1   
    34    14    44 1   
    35    15    16 1   
    36    15    21 1   
    37    16    17 1   
    38    16    45 1   
    39    17    18 1   
    40    18    19 1   
    41    18    21 1   
    42    19    20 1   
    43    19    24 1   
    44    20    46 1   
    45    20    47 1   
    46    21    22 1   
    47    22    23 1   
    48    23    24 1   
    49    23    48 1   
@<TRIPOS>SUBSTRUCTURE
     1 S4M         1 TEMP              0 ****  ****    0 ROOT
