@<TRIPOS>MOLECULE
S4N
   66    70     1     0     0
SMALL
No Charge or Current Charge


@<TRIPOS>ATOM
      1 C1          20.2860    27.3690   -25.1890 c6         1 S4N       0.166500
      2 C2          20.9640    27.4480   -23.7730 c6         1 S4N       0.186800
      3 C3          18.8530    26.6360   -22.7380 c6         1 S4N       0.171800
      4 C7          21.2190    28.9980   -18.9650 ca         1 S4N       0.404900
      5 C8          19.6120    28.9870   -20.5840 ca         1 S4N       0.427900
      6 C9          17.6420    30.6120   -20.5130 c6         1 S4N       0.243500
      7 C10         16.7320    31.1940   -21.6190 c6         1 S4N      -0.125900
      8 C11         15.8520    32.3260   -21.0400 c6         1 S4N       0.154100
      9 C12         15.9090    31.3570   -18.8190 c6         1 S4N       0.154100
     10 C13         16.7910    30.1800   -19.2930 c6         1 S4N      -0.125900
     11 C14         21.1510    30.2930   -16.7570 ca         1 S4N       0.363000
     12 C15         20.3960    31.4220   -17.1040 ca         1 S4N      -0.193500
     13 C16         19.8980    32.2730   -16.1090 ca         1 S4N       0.193000
     14 C19         21.4370    30.0480   -15.4090 ca         1 S4N      -0.193500
     15 C20         19.1860    32.5280   -12.4860 c3         1 S4N       0.186600
     16 C21         18.0910    31.4680   -12.6070 cx         1 S4N      -0.169700
     17 C22         16.8950    31.4740   -11.6810 cx         1 S4N      -0.119900
     18 F1          19.1610    33.3460   -16.4790 f          1 S4N      -0.168500
     19 C17         20.1420    32.0190   -14.7440 ca         1 S4N       0.002100
     20 O1          19.6060    32.9050   -13.8140 os         1 S4N      -0.332100
     21 C23         16.7210    31.8200   -13.1410 cx         1 S4N      -0.119900
     22 C18         20.9410    30.8950   -14.4060 ca         1 S4N       0.193000
     23 F           21.2760    30.6170   -13.1270 f          1 S4N      -0.168500
     24 N5          21.6590    29.4170   -17.7190 nu         1 S4N      -0.936900
     25 N2          22.0530    28.1760   -19.6190 nb         1 S4N      -0.261000
     26 C6          21.6450    27.7370   -20.8270 ca         1 S4N       0.135900
     27 N3          20.0220    29.4250   -19.3840 nb         1 S4N      -0.318000
     28 N4          18.3870    29.4670   -21.0540 nu         1 S4N      -0.923100
     29 O           15.0940    31.8290   -19.9150 os         1 S4N      -0.459000
     30 C5          20.3990    28.1100   -21.3840 ca         1 S4N       0.033000
     31 N           19.9690    27.6360   -22.6670 nh         1 S4N      -0.768400
     32 C4          18.2030    26.5650   -24.1610 c6         1 S4N       0.159800
     33 N1          19.2010    26.3500   -25.2470 n7         1 S4N      -0.868400
     34 C           21.3190    27.0700   -26.3020 c3         1 S4N      -0.090100
     35 H1          19.8430    28.3540   -25.4040 h1         1 S4N       0.029700
     36 H2          21.5360    26.5240   -23.6020 h1         1 S4N       0.044200
     37 H3          21.6830    28.2820   -23.7760 h1         1 S4N       0.044200
     38 H4          18.0680    26.8770   -22.0070 h1         1 S4N       0.044700
     39 H5          19.2380    25.6380   -22.4780 h1         1 S4N       0.044700
     40 H6          18.3380    31.4080   -20.2010 h1         1 S4N       0.072700
     41 H7          17.3400    31.5840   -22.4460 hc         1 S4N       0.057950
     42 H8          16.0860    30.4100   -22.0370 hc         1 S4N       0.057950
     43 H9          16.4770    33.1710   -20.7150 h1         1 S4N       0.050700
     44 H10         15.1550    32.6910   -21.8080 h1         1 S4N       0.050700
     45 H11         15.2540    31.0300   -17.9990 h1         1 S4N       0.050700
     46 H12         16.5360    32.1820   -18.4480 h1         1 S4N       0.050700
     47 H13         16.1530    29.3270   -19.5570 hc         1 S4N       0.057950
     48 H14         17.4370    29.8510   -18.4690 hc         1 S4N       0.057950
     49 H15         20.1990    31.6590   -18.1430 ha         1 S4N       0.147000
     50 H16         22.0400    29.1910   -15.1280 ha         1 S4N       0.147000
     51 H17         18.7800    33.4080   -11.9700 h1         1 S4N       0.059200
     52 H18         20.0200    32.1610   -11.8750 h1         1 S4N       0.059200
     53 H19         18.4840    30.4910   -12.8770 hc         1 S4N       0.080700
     54 H20         16.5140    30.5140   -11.3380 hc         1 S4N       0.074450
     55 H21         16.8080    32.2810   -10.9570 hc         1 S4N       0.074450
     56 H22         16.5240    32.8590   -13.3970 hc         1 S4N       0.074450
     57 H23         16.2250    31.0930   -13.7810 hc         1 S4N       0.074450
     58 H24         22.4650    28.8810   -17.3990 hn         1 S4N       0.513000
     59 H25         22.3250    27.0670   -21.3510 h4         1 S4N       0.023100
     60 H26         18.2170    29.1800   -22.0180 hn         1 S4N       0.515000
     61 H27         17.6660    27.5070   -24.3490 h1         1 S4N       0.036700
     62 H28         17.4580    25.7550   -24.1810 h1         1 S4N       0.036700
     63 H29         18.7260    26.4200   -26.1550 hn         1 S4N       0.413000
     64 H31         22.1100    27.8290   -26.3160 hc         1 S4N       0.041700
     65 H32         21.7960    26.0940   -26.1530 hc         1 S4N       0.041700
     66 H33         20.8470    27.0670   -27.2920 hc         1 S4N       0.041700
@<TRIPOS>BOND
     1     1     2 1   
     2     1    33 1   
     3     1    34 1   
     4     1    35 1   
     5     2    31 1   
     6     2    36 1   
     7     2    37 1   
     8     3    31 1   
     9     3    32 1   
    10     3    38 1   
    11     3    39 1   
    12     4    24 1   
    13     4    25 ar  
    14     4    27 ar  
    15     5    27 ar  
    16     5    28 1   
    17     5    30 ar  
    18     6     7 1   
    19     6    10 1   
    20     6    28 1   
    21     6    40 1   
    22     7     8 1   
    23     7    41 1   
    24     7    42 1   
    25     8    29 1   
    26     8    43 1   
    27     8    44 1   
    28     9    10 1   
    29     9    29 1   
    30     9    45 1   
    31     9    46 1   
    32    10    47 1   
    33    10    48 1   
    34    11    12 ar  
    35    11    14 ar  
    36    11    24 1   
    37    12    13 ar  
    38    12    49 1   
    39    13    18 1   
    40    13    19 ar  
    41    14    22 ar  
    42    14    50 1   
    43    15    16 1   
    44    15    20 1   
    45    15    51 1   
    46    15    52 1   
    47    16    17 1   
    48    16    21 1   
    49    16    53 1   
    50    17    21 1   
    51    17    54 1   
    52    17    55 1   
    53    19    20 1   
    54    19    22 ar  
    55    21    56 1   
    56    21    57 1   
    57    22    23 1   
    58    24    58 1   
    59    25    26 ar  
    60    26    30 ar  
    61    26    59 1   
    62    28    60 1   
    63    30    31 1   
    64    32    33 1   
    65    32    61 1   
    66    32    62 1   
    67    33    63 1   
    68    34    64 1   
    69    34    65 1   
    70    34    66 1   
@<TRIPOS>SUBSTRUCTURE
     1 S4N         1 TEMP              0 ****  ****    0 ROOT
