@<TRIPOS>MOLECULE
S4N
   66    70     1     0     0
SMALL
abcg2


@<TRIPOS>ATOM
      1 C1          19.9720    27.4150   -24.9930 c6         1 S4N       0.166500
      2 C2          20.7910    27.6080   -23.7210 c6         1 S4N       0.186800
      3 C3          18.9450    26.7870   -22.3920 c6         1 S4N       0.171800
      4 C7          21.6200    29.1630   -19.0810 ca         1 S4N       0.404900
      5 C8          19.8450    29.1920   -20.5210 ca         1 S4N       0.427900
      6 C9          17.8690    30.5660   -19.9860 c6         1 S4N       0.243500
      7 C10         16.8340    31.3390   -20.7960 c6         1 S4N      -0.125900
      8 C11         16.0360    32.2510   -19.8700 c6         1 S4N       0.154100
      9 C12         16.3660    30.8370   -18.0060 c6         1 S4N       0.154100
     10 C13         17.1780    29.8430   -18.8240 c6         1 S4N      -0.125900
     11 C14         21.5550    30.3130   -16.8800 ca         1 S4N       0.363000
     12 C15         20.7220    31.3960   -17.1770 ca         1 S4N      -0.193500
     13 C16         20.1220    32.0860   -16.1460 ca         1 S4N       0.193000
     14 C19         21.8020    29.9920   -15.5400 ca         1 S4N      -0.193500
     15 C20         18.5730    31.8300   -13.1880 c3         1 S4N       0.186600
     16 C21         17.4430    31.5890   -14.1430 cx         1 S4N      -0.169700
     17 C22         16.0350    31.6100   -13.6070 cx         1 S4N      -0.119900
     18 F1          19.3150    33.1240   -16.4550 f          1 S4N      -0.168500
     19 C17         20.3140    31.7830   -14.8010 ca         1 S4N       0.002100
     20 O1          19.7100    32.4970   -13.8080 os         1 S4N      -0.332100
     21 C23         16.5200    32.7190   -14.5000 cx         1 S4N      -0.119900
     22 C18         21.1910    30.7300   -14.5460 ca         1 S4N       0.193000
     23 F           21.4290    30.4050   -13.2550 f          1 S4N      -0.168500
     24 N5          22.1760    29.5600   -17.8780 nu         1 S4N      -0.936900
     25 N2          22.3820    28.3710   -19.8380 nb         1 S4N      -0.261000
     26 C6          21.8070    27.9460   -20.9830 ca         1 S4N       0.135900
     27 N3          20.3940    29.5900   -19.3710 nb         1 S4N      -0.318000
     28 N4          18.6230    29.6580   -20.8360 nu         1 S4N      -0.923100
     29 O           15.4090    31.5230   -18.8150 os         1 S4N      -0.459000
     30 C5          20.5410    28.3010   -21.3900 ca         1 S4N       0.033000
     31 N           19.9100    27.8800   -22.5870 nh         1 S4N      -0.768400
     32 C4          18.1300    26.5870   -23.6570 c6         1 S4N       0.159800
     33 N1          19.0290    26.3140   -24.7780 n7         1 S4N      -0.868400
     34 C           20.8670    27.1140   -26.1860 c3         1 S4N      -0.090100
     35 H1          19.4340    28.3580   -25.1810 h1         1 S4N       0.029700
     36 H2          21.3990    26.7040   -23.5600 h1         1 S4N       0.044200
     37 H3          21.4670    28.4560   -23.8440 h1         1 S4N       0.044200
     38 H4          18.2870    27.0360   -21.5590 h1         1 S4N       0.044700
     39 H5          19.4710    25.8540   -22.1390 h1         1 S4N       0.044700
     40 H6          18.5800    31.2780   -19.5610 h1         1 S4N       0.072700
     41 H7          17.3220    31.9410   -21.5670 hc         1 S4N       0.057950
     42 H8          16.1550    30.6400   -21.2940 hc         1 S4N       0.057950
     43 H9          16.6980    33.0130   -19.4390 h1         1 S4N       0.050700
     44 H10         15.2380    32.7570   -20.4130 h1         1 S4N       0.050700
     45 H11         15.8030    30.3370   -17.2190 h1         1 S4N       0.050700
     46 H12         17.0360    31.5700   -17.5370 h1         1 S4N       0.050700
     47 H13         16.5200    29.0660   -19.2240 hc         1 S4N       0.057950
     48 H14         17.9220    29.3640   -18.1860 hc         1 S4N       0.057950
     49 H15         20.5260    31.6910   -18.1930 ha         1 S4N       0.147000
     50 H16         22.4460    29.1650   -15.2730 ha         1 S4N       0.147000
     51 H17         18.2660    32.5060   -12.3910 h1         1 S4N       0.059200
     52 H18         18.9210    30.8940   -12.7440 h1         1 S4N       0.059200
     53 H19         17.6440    30.8620   -14.9220 hc         1 S4N       0.080700
     54 H20         15.3330    30.8940   -14.0130 hc         1 S4N       0.074450
     55 H21         15.9020    31.8280   -12.5550 hc         1 S4N       0.074450
     56 H22         16.7170    33.6830   -14.0480 hc         1 S4N       0.074450
     57 H23         16.1440    32.7610   -15.5130 hc         1 S4N       0.074450
     58 H24         22.9900    29.0300   -17.6080 hn         1 S4N       0.513000
     59 H25         22.4130    27.2930   -21.6000 h4         1 S4N       0.023100
     60 H26         18.2410    29.3780   -21.7260 hn         1 S4N       0.515000
     61 H27         17.5180    27.4870   -23.8270 h1         1 S4N       0.036700
     62 H28         17.4550    25.7400   -23.5260 h1         1 S4N       0.036700
     63 H29         18.4870    26.1660   -25.6220 hn         1 S4N       0.413000
     64 H31         21.5580    27.9380   -26.3670 hc         1 S4N       0.041700
     65 H32         21.4460    26.2040   -26.0120 hc         1 S4N       0.041700
     66 H33         20.2670    26.9690   -27.0870 hc         1 S4N       0.041700
@<TRIPOS>BOND
     1     1     2 1   
     2     1    33 1   
     3     1    34 1   
     4     1    35 1   
     5     2    31 1   
     6     2    36 1   
     7     2    37 1   
     8     3    31 1   
     9     3    32 1   
    10     3    38 1   
    11     3    39 1   
    12     4    24 1   
    13     4    25 ar  
    14     4    27 ar  
    15     5    27 ar  
    16     5    28 1   
    17     5    30 ar  
    18     6     7 1   
    19     6    10 1   
    20     6    28 1   
    21     6    40 1   
    22     7     8 1   
    23     7    41 1   
    24     7    42 1   
    25     8    29 1   
    26     8    43 1   
    27     8    44 1   
    28     9    10 1   
    29     9    29 1   
    30     9    45 1   
    31     9    46 1   
    32    10    47 1   
    33    10    48 1   
    34    11    12 ar  
    35    11    14 ar  
    36    11    24 1   
    37    12    13 ar  
    38    12    49 1   
    39    13    18 1   
    40    13    19 ar  
    41    14    22 ar  
    42    14    50 1   
    43    15    16 1   
    44    15    20 1   
    45    15    51 1   
    46    15    52 1   
    47    16    17 1   
    48    16    21 1   
    49    16    53 1   
    50    17    21 1   
    51    17    54 1   
    52    17    55 1   
    53    19    20 1   
    54    19    22 ar  
    55    21    56 1   
    56    21    57 1   
    57    22    23 1   
    58    24    58 1   
    59    25    26 ar  
    60    26    30 ar  
    61    26    59 1   
    62    28    60 1   
    63    30    31 1   
    64    32    33 1   
    65    32    61 1   
    66    32    62 1   
    67    33    63 1   
    68    34    64 1   
    69    34    65 1   
    70    34    66 1   
@<TRIPOS>SUBSTRUCTURE
     1 S4N         1 TEMP              0 ****  ****    0 ROOT
