@<TRIPOS>MOLECULE
S4O
   34    36     1     0     0
SMALL
No Charge or Current Charge


@<TRIPOS>ATOM
      1 O5         -47.7270   -29.5900     4.9320 os         1 S4O      -0.343200
      2 N1         -53.0630   -28.2040     7.7720 na         1 S4O       0.125800
      3 O4         -45.6580   -29.6680     5.8330 o          1 S4O      -0.484000
      4 C13        -46.3680   -29.5590     4.8460 c          1 S4O       0.686300
      5 O2         -50.8650   -29.2260     3.1270 o          1 S4O      -0.582100
      6 C12        -45.8220   -29.3760     3.5150 cc         1 S4O      -0.466200
      7 C11        -46.6210   -29.2420     2.4270 cd         1 S4O       0.244100
      8 O3         -46.1260   -29.0590     1.1960 oh         1 S4O      -0.511100
      9 C10        -48.0310   -29.3000     2.6180 cd         1 S4O      -0.279000
     10 C9         -48.6050   -29.5040     3.8700 cc         1 S4O       0.111900
     11 C8         -50.1070   -29.5170     4.0490 c          1 S4O       0.623300
     12 C7         -52.0790   -28.9120     7.0820 cc         1 S4O      -0.135300
     13 C6         -52.0590   -29.4590     5.6720 c6         1 S4O       0.164300
     14 C5         -49.9720   -30.6080     6.4100 c6         1 S4O       0.111000
     15 C4         -49.7550   -29.7240     7.6670 c6         1 S4O       0.001900
     16 C3         -51.0580   -29.0210     7.9740 cd         1 S4O      -0.204300
     17 C2         -51.4830   -28.3750     9.1450 cd         1 S4O       0.503300
     18 C1         -54.3830   -27.8130     7.2530 c3         1 S4O       0.080900
     19 O1         -50.7760   -28.2540    10.2660 oh         1 S4O      -0.633300
     20 N2         -52.6880   -27.8670     9.0680 nc         1 S4O      -0.598800
     21 N3         -50.6590   -29.8460     5.3190 n          1 S4O      -0.391800
     22 H13        -44.7410   -29.3470     3.4620 ha         1 S4O       0.217000
     23 H12        -45.1510   -29.0500     1.2860 ho         1 S4O       0.482000
     24 H11        -48.6720   -29.1890     1.7490 ha         1 S4O       0.233000
     25 H9         -52.4370   -28.7000     4.9730 h1         1 S4O       0.074200
     26 H10        -52.7110   -30.3400     5.5890 h1         1 S4O       0.074200
     27 H7         -50.6300   -31.4410     6.6970 h1         1 S4O       0.054200
     28 H8         -49.0410   -31.0830     6.0810 h1         1 S4O       0.054200
     29 H5         -49.4230   -30.3420     8.5120 hc         1 S4O       0.071200
     30 H6         -48.9610   -28.9900     7.4740 hc         1 S4O       0.071200
     31 H2         -55.0010   -27.4060     8.0630 h1         1 S4O       0.056700
     32 H1         -54.2570   -27.0510     6.4750 h1         1 S4O       0.056700
     33 H3         -54.8820   -28.6900     6.8250 h1         1 S4O       0.056700
     34 H4         -51.3830   -27.7550    10.8500 ho         1 S4O       0.476000
@<TRIPOS>BOND
     1     1     4 1   
     2     1    10 1   
     3     2    12 1   
     4     2    18 1   
     5     2    20 1   
     6     3     4 2   
     7     4     6 1   
     8     5    11 2   
     9     6     7 2   
    10     6    22 1   
    11     7     8 1   
    12     7     9 1   
    13     8    23 1   
    14     9    10 2   
    15     9    24 1   
    16    10    11 1   
    17    11    21 1   
    18    12    13 1   
    19    12    16 2   
    20    13    21 1   
    21    13    25 1   
    22    13    26 1   
    23    14    15 1   
    24    14    21 1   
    25    14    27 1   
    26    14    28 1   
    27    15    16 1   
    28    15    29 1   
    29    15    30 1   
    30    16    17 1   
    31    17    19 1   
    32    17    20 2   
    33    18    31 1   
    34    18    32 1   
    35    18    33 1   
    36    19    34 1   
@<TRIPOS>SUBSTRUCTURE
     1 S4O         1 TEMP              0 ****  ****    0 ROOT
