@<TRIPOS>MOLECULE
S4O
   34    36     1     0     0
SMALL
abcg2


@<TRIPOS>ATOM
      1 O5         -47.8090   -28.7800     4.9100 os         1 S4O      -0.343200
      2 N1         -53.0620   -28.3500     7.7550 na         1 S4O       0.125800
      3 O4         -45.8110   -28.4980     5.8430 o          1 S4O      -0.484000
      4 C13        -46.4060   -28.8490     4.8440 c          1 S4O       0.686300
      5 O2         -50.7310   -28.3650     3.2810 o          1 S4O      -0.582100
      6 C12        -45.8640   -29.3200     3.6160 cc         1 S4O      -0.466200
      7 C11        -46.6790   -29.6730     2.5760 cd         1 S4O       0.244100
      8 O3         -46.2370   -30.1210     1.3960 oh         1 S4O      -0.511100
      9 C10        -48.0980   -29.5790     2.7090 cd         1 S4O      -0.279000
     10 C9         -48.5960   -29.1480     3.8810 cc         1 S4O       0.111900
     11 C8         -50.0700   -28.9700     4.1260 c          1 S4O       0.623300
     12 C7         -52.0270   -28.8850     7.0740 cc         1 S4O      -0.135300
     13 C6         -51.9720   -29.1670     5.6090 c6         1 S4O       0.164300
     14 C5         -49.8890   -30.3820     6.1870 c6         1 S4O       0.111000
     15 C4         -49.7000   -29.7370     7.5630 c6         1 S4O       0.001900
     16 C3         -51.0040   -29.1300     7.9700 cd         1 S4O      -0.204300
     17 C2         -51.5340   -28.7000     9.2020 cd         1 S4O       0.503300
     18 C1         -54.3880   -28.0270     7.2750 c3         1 S4O       0.080900
     19 O1         -50.8800   -28.7340    10.3860 oh         1 S4O      -0.633300
     20 N2         -52.7720   -28.2390     9.0850 nc         1 S4O      -0.598800
     21 N3         -50.5800   -29.4690     5.2660 n          1 S4O      -0.391800
     22 H13        -44.7880   -29.3870     3.5400 ha         1 S4O       0.217000
     23 H12        -45.2680   -30.1560     1.3750 ho         1 S4O       0.482000
     24 H11        -48.7530   -29.8530     1.8960 ha         1 S4O       0.233000
     25 H9         -52.2930   -28.3120     5.0180 h1         1 S4O       0.074200
     26 H10        -52.6140   -30.0140     5.3420 h1         1 S4O       0.074200
     27 H7         -50.5170   -31.2710     6.2840 h1         1 S4O       0.054200
     28 H8         -48.9440   -30.6940     5.7570 h1         1 S4O       0.054200
     29 H5         -49.3790   -30.5040     8.2720 hc         1 S4O       0.071200
     30 H6         -48.9040   -28.9890     7.5140 hc         1 S4O       0.071200
     31 H2         -54.7190   -27.0980     7.7370 h1         1 S4O       0.056700
     32 H1         -54.3520   -27.8950     6.1960 h1         1 S4O       0.056700
     33 H3         -55.0950   -28.8230     7.5150 h1         1 S4O       0.056700
     34 H4         -51.4620   -28.3890    11.0780 ho         1 S4O       0.476000
@<TRIPOS>BOND
     1     1     4 1   
     2     1    10 1   
     3     2    12 1   
     4     2    18 1   
     5     2    20 1   
     6     3     4 2   
     7     4     6 1   
     8     5    11 2   
     9     6     7 2   
    10     6    22 1   
    11     7     8 1   
    12     7     9 1   
    13     8    23 1   
    14     9    10 2   
    15     9    24 1   
    16    10    11 1   
    17    11    21 1   
    18    12    13 1   
    19    12    16 2   
    20    13    21 1   
    21    13    25 1   
    22    13    26 1   
    23    14    15 1   
    24    14    21 1   
    25    14    27 1   
    26    14    28 1   
    27    15    16 1   
    28    15    29 1   
    29    15    30 1   
    30    16    17 1   
    31    17    19 1   
    32    17    20 2   
    33    18    31 1   
    34    18    32 1   
    35    18    33 1   
    36    19    34 1   
@<TRIPOS>SUBSTRUCTURE
     1 S4O         1 TEMP              0 ****  ****    0 ROOT
