@<TRIPOS>MOLECULE
S4P
    6     5     1     0     0
SMALL
bcc


@<TRIPOS>ATOM
      1 S4           1.9640     0.4430     0.5060 sh         1 S4P      -0.223800
      2 S3           0.9310    -1.0590    -0.4500 ss         1 S4P       0.004000
      3 S2          -0.9380    -1.1020     0.4190 ss         1 S4P       0.004000
      4 S1          -2.0360     0.3590    -0.5260 sh         1 S4P      -0.223800
      5 H1           1.6200     1.4580    -0.3000 hs         1 S4P       0.219800
      6 H2          -1.7340     1.3840     0.2850 hs         1 S4P       0.219800
@<TRIPOS>BOND
     1     1     2 1   
     2     1     5 1   
     3     2     3 1   
     4     3     4 1   
     5     4     6 1   
@<TRIPOS>SUBSTRUCTURE
     1 S4P         1 TEMP              0 ****  ****    0 ROOT
