@<TRIPOS>MOLECULE
S4P
    6     5     1     0     0
SMALL
No Charge or Current Charge


@<TRIPOS>ATOM
      1 S4           2.3830     0.2070     0.2800 sh         1 S4P      -0.223800
      2 S3           0.7900    -0.7480    -0.6940 ss         1 S4P       0.004000
      3 S2          -0.8040    -0.7910     0.6660 ss         1 S4P       0.004000
      4 S1          -2.4420     0.0890    -0.3030 sh         1 S4P      -0.223800
      5 H1           1.8100     1.4080     0.5310 hs         1 S4P       0.219800
      6 H2          -1.9300     1.3180    -0.5470 hs         1 S4P       0.219800
@<TRIPOS>BOND
     1     1     2 1   
     2     1     5 1   
     3     2     3 1   
     4     3     4 1   
     5     4     6 1   
@<TRIPOS>SUBSTRUCTURE
     1 S4P         1 TEMP              0 ****  ****    0 ROOT
