@<TRIPOS>MOLECULE
S4Q
   45    48     1     0     0
SMALL
abcg2


@<TRIPOS>ATOM
      1 C1          26.3340    17.8120    15.5560 ca         1 S4Q       0.470900
      2 C2          25.5430    17.4770    16.6800 ca         1 S4Q      -0.129600
      3 C3          25.7190    16.1970    17.1920 ca         1 S4Q       0.162500
      4 C7          30.6640    13.2950    14.8930 c5         1 S4Q      -0.078900
      5 C8          30.7770    13.3930    16.4240 c5         1 S4Q      -0.078900
      6 C9          29.3440    13.7020    16.9300 c5         1 S4Q      -0.089900
      7 C10         24.2040    17.3160    18.3310 cc         1 S4Q       0.402700
      8 C12         25.9020    14.6250    19.9170 ca         1 S4Q      -0.190300
      9 C13         26.3940    15.4880    20.8910 ca         1 S4Q       0.218000
     10 C14         27.5460    15.2520    21.6160 ca         1 S4Q      -0.170000
     11 C15         28.2500    14.0790    21.3650 ca         1 S4Q      -0.047000
     12 C16         27.7990    13.1710    20.4160 ca         1 S4Q      -0.170000
     13 F1          25.6940    16.6210    21.1340 f          1 S4Q      -0.172500
     14 C17         26.6410    13.4650    19.7190 ca         1 S4Q       0.218000
     15 F           26.2040    12.5750    18.7990 f          1 S4Q      -0.172500
     16 N3          24.8500    16.1020    18.2520 na         1 S4Q      -0.295300
     17 N4          24.5870    18.1650    17.4090 nd         1 S4Q      -0.545100
     18 N1          26.5680    15.2650    16.7350 nb         1 S4Q      -0.298000
     19 C4          27.2650    15.7000    15.6920 ca         1 S4Q       0.412300
     20 N2          27.1940    16.8960    15.0870 nb         1 S4Q      -0.305000
     21 N           26.2500    19.0080    14.9560 nu         1 S4Q      -0.917100
     22 C           27.0030    19.3730    13.7700 c3         1 S4Q       0.225100
     23 O           28.1650    14.8850    15.1180 os         1 S4Q      -0.450300
     24 C5          28.4180    13.5800    15.7060 c5         1 S4Q       0.183300
     25 C6          29.2280    12.8040    14.6760 c5         1 S4Q      -0.089900
     26 H1          31.4110    12.6310    14.4550 hc         1 S4Q       0.045200
     27 H2          30.7880    14.2800    14.4370 hc         1 S4Q       0.045200
     28 H3          31.1160    12.4380    16.8310 hc         1 S4Q       0.045200
     29 H4          31.4970    14.1500    16.7380 hc         1 S4Q       0.045200
     30 H5          29.2600    14.6970    17.3650 hc         1 S4Q       0.055700
     31 H6          29.0350    12.9950    17.6990 hc         1 S4Q       0.055700
     32 H7          23.4630    17.5010    19.0940 h5         1 S4Q       0.066800
     33 H8          23.8350    15.1890    19.7930 h1         1 S4Q       0.075700
     34 H9          24.3730    14.0920    18.5230 h1         1 S4Q       0.075700
     35 H10         27.8730    15.9690    22.3560 ha         1 S4Q       0.139500
     36 H11         29.1560    13.8700    21.9180 ha         1 S4Q       0.125000
     37 H12         28.3300    12.2520    20.2100 ha         1 S4Q       0.139500
     38 H13         25.5700    19.6570    15.3140 hn         1 S4Q       0.515000
     39 H14         26.7130    20.3810    13.4820 h1         1 S4Q       0.045033
     40 H15         28.0770    19.3540    13.9630 h1         1 S4Q       0.045033
     41 H16         26.7930    18.6920    12.9430 h1         1 S4Q       0.045033
     42 H17         27.4600    13.1230    15.9410 h1         1 S4Q       0.075700
     43 H18         28.8500    12.9470    13.6630 hc         1 S4Q       0.055700
     44 H19         29.1570    11.7400    14.9190 hc         1 S4Q       0.055700
     45 C11         24.6620    14.9490    19.1260 c3         1 S4Q       0.156900
@<TRIPOS>BOND
     1     1     2 ar  
     2     1    20 ar  
     3     1    21 1   
     4     2     3 ar  
     5     2    17 1   
     6     3    16 1   
     7     3    18 ar  
     8     4     5 1   
     9     4    25 1   
    10     4    26 1   
    11     4    27 1   
    12     5     6 1   
    13     5    28 1   
    14     5    29 1   
    15     6    24 1   
    16     6    30 1   
    17     6    31 1   
    18     7    16 1   
    19     7    17 2   
    20     7    32 1   
    21     8     9 ar  
    22     8    14 ar  
    23     8    45 1   
    24     9    10 ar  
    25     9    13 1   
    26    10    11 ar  
    27    10    35 1   
    28    11    12 ar  
    29    11    36 1   
    30    12    14 ar  
    31    12    37 1   
    32    14    15 1   
    33    16    45 1   
    34    18    19 ar  
    35    19    20 ar  
    36    19    23 1   
    37    21    22 1   
    38    21    38 1   
    39    22    39 1   
    40    22    40 1   
    41    22    41 1   
    42    23    24 1   
    43    24    25 1   
    44    24    42 1   
    45    25    43 1   
    46    25    44 1   
    47    33    45 1   
    48    34    45 1   
@<TRIPOS>SUBSTRUCTURE
     1 S4Q         1 TEMP              0 ****  ****    0 ROOT
