@<TRIPOS>MOLECULE
S4Q
   45    48     1     0     0
SMALL
No Charge or Current Charge


@<TRIPOS>ATOM
      1 C1          26.1860    17.6760    15.5520 ca         1 S4Q       0.470900
      2 C2          25.4120    17.3780    16.6890 ca         1 S4Q      -0.129600
      3 C3          25.4550    16.1000    17.1710 ca         1 S4Q       0.162500
      4 C7          30.8010    13.1180    15.5170 c5         1 S4Q      -0.078900
      5 C8          30.5970    13.5980    16.9720 c5         1 S4Q      -0.078900
      6 C9          29.4140    14.5710    16.7610 c5         1 S4Q      -0.089900
      7 C10         24.1360    17.3970    18.4300 cc         1 S4Q       0.402700
      8 C12         25.9280    14.5200    19.7240 ca         1 S4Q      -0.190300
      9 C13         26.6840    15.3630    20.5610 ca         1 S4Q       0.218000
     10 C14         27.9580    14.9780    21.0080 ca         1 S4Q      -0.170000
     11 C15         28.4980    13.7400    20.6230 ca         1 S4Q      -0.047000
     12 C16         27.7510    12.8890    19.7930 ca         1 S4Q      -0.170000
     13 F1          26.1900    16.5620    20.9470 f          1 S4Q      -0.172500
     14 C17         26.4760    13.2750    19.3490 ca         1 S4Q       0.218000
     15 F           25.7880    12.4360    18.5440 f          1 S4Q      -0.172500
     16 N3          24.6540    16.1100    18.2730 na         1 S4Q      -0.295300
     17 N4          24.5810    18.2120    17.4520 nd         1 S4Q      -0.545100
     18 N1          26.2000    15.1410    16.6020 nb         1 S4Q      -0.298000
     19 C4          26.9510    15.5040    15.5310 ca         1 S4Q       0.412300
     20 N2          26.9580    16.7370    14.9750 nb         1 S4Q      -0.305000
     21 N           26.1880    18.9550    15.0080 nu         1 S4Q      -0.917100
     22 C           26.9810    19.4490    13.8680 c3         1 S4Q       0.225100
     23 O           27.7650    14.5640    14.9190 os         1 S4Q      -0.450300
     24 C5          28.4310    13.7100    15.9000 c5         1 S4Q       0.183300
     25 C6          29.3530    12.7220    15.1110 c5         1 S4Q      -0.089900
     26 H1          31.4990    12.2760    15.4470 hc         1 S4Q       0.045200
     27 H2          31.1930    13.9200    14.8790 hc         1 S4Q       0.045200
     28 H3          30.3380    12.7740    17.6490 hc         1 S4Q       0.045200
     29 H4          31.4840    14.0980    17.3790 hc         1 S4Q       0.045200
     30 H5          29.7370    15.4780    16.2340 hc         1 S4Q       0.055700
     31 H6          28.9670    14.8870    17.7100 hc         1 S4Q       0.055700
     32 H7          23.4840    17.6700    19.2510 h5         1 S4Q       0.066800
     33 H8          23.9290    15.2530    20.0500 h1         1 S4Q       0.075700
     34 H9          24.0540    14.1450    18.6830 h1         1 S4Q       0.075700
     35 H10         28.5270    15.6440    21.6520 ha         1 S4Q       0.139500
     36 H11         29.4870    13.4430    20.9670 ha         1 S4Q       0.125000
     37 H12         28.1590    11.9280    19.4900 ha         1 S4Q       0.139500
     38 H13         25.5950    19.6180    15.5120 hn         1 S4Q       0.515000
     39 H14         26.7630    20.5090    13.6780 h1         1 S4Q       0.045033
     40 H15         28.0550    19.3480    14.0730 h1         1 S4Q       0.045033
     41 H16         26.7450    18.8800    12.9590 h1         1 S4Q       0.045033
     42 H17         27.7050    13.1490    16.5060 h1         1 S4Q       0.075700
     43 H18         29.2060    12.7740    14.0260 hc         1 S4Q       0.055700
     44 H19         29.1380    11.6890    15.4070 hc         1 S4Q       0.055700
     45 C11         24.5620    14.9690    19.2000 c3         1 S4Q       0.156900
@<TRIPOS>BOND
     1     1     2 ar  
     2     1    20 ar  
     3     1    21 1   
     4     2     3 ar  
     5     2    17 1   
     6     3    16 1   
     7     3    18 ar  
     8     4     5 1   
     9     4    25 1   
    10     4    26 1   
    11     4    27 1   
    12     5     6 1   
    13     5    28 1   
    14     5    29 1   
    15     6    24 1   
    16     6    30 1   
    17     6    31 1   
    18     7    16 1   
    19     7    17 2   
    20     7    32 1   
    21     8     9 ar  
    22     8    14 ar  
    23     8    45 1   
    24     9    10 ar  
    25     9    13 1   
    26    10    11 ar  
    27    10    35 1   
    28    11    12 ar  
    29    11    36 1   
    30    12    14 ar  
    31    12    37 1   
    32    14    15 1   
    33    16    45 1   
    34    18    19 ar  
    35    19    20 ar  
    36    19    23 1   
    37    21    22 1   
    38    21    38 1   
    39    22    39 1   
    40    22    40 1   
    41    22    41 1   
    42    23    24 1   
    43    24    25 1   
    44    24    42 1   
    45    25    43 1   
    46    25    44 1   
    47    33    45 1   
    48    34    45 1   
@<TRIPOS>SUBSTRUCTURE
     1 S4Q         1 TEMP              0 ****  ****    0 ROOT
