@<TRIPOS>MOLECULE
S4R
   63    68     1     0     0
SMALL
No Charge or Current Charge


@<TRIPOS>ATOM
      1 C10         15.1770   -18.0910    42.1610 cy         1 S4R       0.143300
      2 C15         12.7670   -15.2530    42.7220 cc         1 S4R      -0.112000
      3 C17         12.4930   -16.0830    44.7690 cd         1 S4R       0.303900
      4 C20         11.6470   -12.4580    43.7070 ca         1 S4R      -0.188800
      5 C21         12.2270   -12.0500    42.4560 cc         1 S4R      -0.217200
      6 C22         11.8770   -10.7260    42.2550 cd         1 S4R      -0.155100
      7 C24         10.9880   -11.3650    44.2290 ca         1 S4R       0.130500
      8 C26         10.4460   -12.6060    46.0700 ca         1 S4R       0.141900
      9 C28         16.1450   -21.1500    37.1740 c          1 S4R       0.617700
     10 C01         17.4380   -19.4570    40.3660 c6         1 S4R      -0.090900
     11 C02         16.6480   -20.4940    39.5330 c6         1 S4R       0.106000
     12 C04         16.1210   -18.7350    37.8420 c6         1 S4R       0.106000
     13 C05         16.9190   -17.6980    38.6670 c6         1 S4R      -0.090900
     14 C06         16.8860   -18.0310    40.1720 c6         1 S4R       0.178500
     15 C08         14.7340   -16.6370    40.7480 cy         1 S4R       0.143300
     16 C09         13.8180   -17.3830    41.7950 cy         1 S4R       0.081000
     17 C11         12.7290   -18.3280    41.2040 c3         1 S4R      -0.010300
     18 C12         11.6880   -17.5890    40.4800 c1         1 S4R       0.292900
     19 C16         12.3030   -14.9310    43.9710 cd         1 S4R      -0.276500
     20 C19         11.6790   -13.6750    44.4320 ca         1 S4R       0.274500
     21 C30         16.2580   -20.8790    35.6960 ca         1 S4R      -0.143600
     22 C31         17.3260   -20.1490    35.1250 ca         1 S4R       0.184000
     23 C32         17.3670   -19.9520    33.7210 ca         1 S4R       0.204300
     24 C34         15.4080   -21.1850    33.4320 ca         1 S4R       0.320900
     25 C35         15.2990   -21.4220    34.8120 ca         1 S4R      -0.081000
     26 C36         18.5220   -19.1530    33.0830 c3         1 S4R       0.265700
     27 F37         18.6030   -17.9000    33.5900 f          1 S4R      -0.098333
     28 F38         18.4000   -19.0160    31.7400 f          1 S4R      -0.098333
     29 F39         19.7200   -19.7440    33.3020 f          1 S4R      -0.098333
     30 F40         18.3320   -19.6800    35.9030 f          1 S4R      -0.149000
     31 N03         16.5480   -20.1480    38.0840 n          1 S4R      -0.396800
     32 N07         15.5330   -17.8950    40.7250 nq         1 S4R      -0.721600
     33 N13         10.8820   -16.9820    39.8970 n1         1 S4R      -0.448000
     34 N14         13.2250   -16.5620    42.8500 na         1 S4R       0.113800
     35 N18         13.0530   -17.0820    44.1160 nc         1 S4R      -0.534800
     36 N23         11.0960   -10.2960    43.3530 na         1 S4R      -0.329400
     37 N25         10.3730   -11.4220    45.4240 nb         1 S4R      -0.197000
     38 N27         11.0640   -13.7280    45.6360 nb         1 S4R      -0.216000
     39 N33         16.4130   -20.4610    32.8880 nb         1 S4R      -0.596000
     40 O29         15.7840   -22.2520    37.5700 o          1 S4R      -0.585100
     41 H101        15.0790   -19.1290    42.4980 h1         1 S4R       0.068950
     42 H102        15.7950   -17.5260    42.8710 h1         1 S4R       0.068950
     43 H151        12.7910   -14.7190    41.7830 h4         1 S4R       0.159000
     44 H171        12.2380   -16.2200    45.8140 h4         1 S4R       0.058100
     45 H221        12.1350   -10.0620    41.4310 h4         1 S4R       0.219000
     46 H261         9.9540   -12.6640    47.0400 h5         1 S4R       0.050100
     47 H011        17.4190   -19.7350    41.4270 hc         1 S4R       0.058450
     48 H012        18.4940   -19.4810    40.0630 hc         1 S4R       0.058450
     49 H022        15.6320   -20.5860    39.9430 h1         1 S4R       0.063450
     50 H021        17.1330   -21.4740    39.6440 h1         1 S4R       0.063450
     51 H042        16.2040   -18.4740    36.7790 h1         1 S4R       0.063450
     52 H041        15.0560   -18.6480    38.1010 h1         1 S4R       0.063450
     53 H052        17.9600   -17.6840    38.3190 hc         1 S4R       0.058450
     54 H051        16.5220   -16.6910    38.4890 hc         1 S4R       0.058450
     55 H061        17.5400   -17.3240    40.7030 h1         1 S4R       0.033700
     56 H082        15.2610   -15.7660    41.1610 h1         1 S4R       0.068950
     57 H081        14.2420   -16.3620    39.8090 h1         1 S4R       0.068950
     58 H112        12.2560   -18.9130    41.9990 hc         1 S4R       0.095700
     59 H111        13.1720   -19.0510    40.5100 hc         1 S4R       0.095700
     60 H341        14.6680   -21.5870    32.7400 h4         1 S4R       0.041100
     61 H351        14.4670   -22.0140    35.1860 ha         1 S4R       0.145000
     62 H231        10.6980    -9.3720    43.4920 hn         1 S4R       0.366000
     63 H211        12.8660   -12.6180    41.7860 ha         1 S4R       0.201000
@<TRIPOS>BOND
     1     1    16 1   
     2     1    32 1   
     3     1    41 1   
     4     1    42 1   
     5     2    19 2   
     6     2    34 1   
     7     2    43 1   
     8     3    19 1   
     9     3    35 2   
    10     3    44 1   
    11     4     5 1   
    12     4     7 ar  
    13     4    20 ar  
    14     5     6 2   
    15     5    63 1   
    16     6    36 1   
    17     6    45 1   
    18     7    36 1   
    19     7    37 ar  
    20     8    37 ar  
    21     8    38 ar  
    22     8    46 1   
    23     9    21 1   
    24     9    31 1   
    25     9    40 2   
    26    10    11 1   
    27    10    14 1   
    28    10    47 1   
    29    10    48 1   
    30    11    31 1   
    31    11    49 1   
    32    11    50 1   
    33    12    13 1   
    34    12    31 1   
    35    12    51 1   
    36    12    52 1   
    37    13    14 1   
    38    13    53 1   
    39    13    54 1   
    40    14    32 1   
    41    14    55 1   
    42    15    16 1   
    43    15    32 1   
    44    15    56 1   
    45    15    57 1   
    46    16    17 1   
    47    16    34 1   
    48    17    18 1   
    49    17    58 1   
    50    17    59 1   
    51    18    33 3   
    52    19    20 1   
    53    20    38 ar  
    54    21    22 ar  
    55    21    25 ar  
    56    22    23 ar  
    57    22    30 1   
    58    23    26 1   
    59    23    39 ar  
    60    24    25 ar  
    61    24    39 ar  
    62    24    60 1   
    63    25    61 1   
    64    26    27 1   
    65    26    28 1   
    66    26    29 1   
    67    34    35 1   
    68    36    62 1   
@<TRIPOS>SUBSTRUCTURE
     1 S4R         1 TEMP              0 ****  ****    0 ROOT
