@<TRIPOS>MOLECULE
S4R
   63    68     1     0     0
SMALL
abcg2


@<TRIPOS>ATOM
      1 C10         14.4320   -18.5450    41.9470 cy         1 S4R       0.143300
      2 C15         12.7020   -15.4000    42.7030 cc         1 S4R      -0.112000
      3 C17         12.6030   -15.9970    44.8310 cd         1 S4R       0.303900
      4 C20         12.3590   -12.3970    43.5170 ca         1 S4R      -0.188800
      5 C21         12.8020   -12.1330    42.1790 cc         1 S4R      -0.217200
      6 C22         12.7040   -10.7810    41.9930 cd         1 S4R      -0.155100
      7 C24         12.0120   -11.1410    44.0840 ca         1 S4R       0.130500
      8 C26         11.4820   -12.0730    46.0320 ca         1 S4R       0.141900
      9 C28         17.1680   -21.0340    37.2480 c          1 S4R       0.617700
     10 C01         16.8340   -19.3810    40.2940 c6         1 S4R      -0.090900
     11 C02         16.4210   -20.6360    39.5300 c6         1 S4R       0.106000
     12 C04         15.4830   -19.2620    37.7180 c6         1 S4R       0.106000
     13 C05         15.8770   -17.9790    38.4460 c6         1 S4R      -0.090900
     14 C06         15.9400   -18.1840    39.9630 c6         1 S4R       0.178500
     15 C08         13.6720   -17.2430    40.4790 cy         1 S4R       0.143300
     16 C09         13.1270   -17.7290    41.8370 cy         1 S4R       0.081000
     17 C11         11.8890   -18.6300    41.7240 c3         1 S4R      -0.010300
     18 C12         10.7000   -17.8790    41.3470 c1         1 S4R       0.292900
     19 C16         12.4880   -14.8760    43.9720 cd         1 S4R      -0.276500
     20 C19         12.2030   -13.5050    44.3640 ca         1 S4R       0.274500
     21 C30         17.0970   -20.6850    35.7810 ca         1 S4R      -0.143600
     22 C31         17.7760   -19.6000    35.2560 ca         1 S4R       0.184000
     23 C32         17.7910   -19.3710    33.8870 ca         1 S4R       0.204300
     24 C34         16.4950   -21.2160    33.5220 ca         1 S4R       0.320900
     25 C35         16.4440   -21.5150    34.8780 ca         1 S4R      -0.081000
     26 C36         18.5420   -18.1820    33.3220 c3         1 S4R       0.265700
     27 F37         18.0610   -17.0180    33.8130 f          1 S4R      -0.098333
     28 F38         18.4620   -18.1180    31.9890 f          1 S4R      -0.098333
     29 F39         19.8530   -18.2290    33.6460 f          1 S4R      -0.098333
     30 F40         18.4190   -18.7570    36.0830 f          1 S4R      -0.149000
     31 N03         16.3800   -20.3570    38.0920 n          1 S4R      -0.396800
     32 N07         14.5980   -18.3950    40.4870 nq         1 S4R      -0.721600
     33 N13          9.7790   -17.2560    41.0530 n1         1 S4R      -0.448000
     34 N14         12.9260   -16.7200    42.8560 na         1 S4R       0.113800
     35 N18         12.8670   -17.1040    44.1550 nc         1 S4R      -0.534800
     36 N23         12.2240   -10.1830    43.1400 na         1 S4R      -0.329400
     37 N25         11.5720   -10.9470    45.3260 nb         1 S4R      -0.197000
     38 N27         11.7680   -13.3120    45.6240 nb         1 S4R      -0.216000
     39 N33         17.1580   -20.1670    33.0340 nb         1 S4R      -0.596000
     40 O29         17.9410   -21.9370    37.5750 o          1 S4R      -0.585100
     41 H101        14.3540   -19.5700    42.3110 h1         1 S4R       0.068950
     42 H102        15.1800   -17.9960    42.5300 h1         1 S4R       0.068950
     43 H151        12.6870   -14.9430    41.7310 h4         1 S4R       0.159000
     44 H171        12.5160   -16.0200    45.9050 h4         1 S4R       0.058100
     45 H221        12.9410   -10.1840    41.1270 h4         1 S4R       0.219000
     46 H261        11.1360   -11.9740    47.0560 h5         1 S4R       0.050100
     47 H011        16.8130   -19.5910    41.3650 hc         1 S4R       0.058450
     48 H012        17.8640   -19.1270    40.0360 hc         1 S4R       0.058450
     49 H022        15.4260   -20.9630    39.8380 h1         1 S4R       0.063450
     50 H021        17.1220   -21.4470    39.6990 h1         1 S4R       0.063450
     51 H042        15.5070   -19.1170    36.6420 h1         1 S4R       0.063450
     52 H041        14.4660   -19.5530    37.9910 h1         1 S4R       0.063450
     53 H052        16.8570   -17.6480    38.0950 hc         1 S4R       0.058450
     54 H051        15.1610   -17.1940    38.1970 hc         1 S4R       0.058450
     55 H061        16.3810   -17.2830    40.4220 h1         1 S4R       0.033700
     56 H082        14.1930   -16.2840    40.5720 h1         1 S4R       0.068950
     57 H081        12.9720   -17.2020    39.6450 h1         1 S4R       0.068950
     58 H112        11.7040   -19.1230    42.6800 hc         1 S4R       0.095700
     59 H111        12.0720   -19.4020    40.9750 hc         1 S4R       0.095700
     60 H341        15.9870   -21.8440    32.8010 h4         1 S4R       0.041100
     61 H351        15.8990   -22.3810    35.2280 ha         1 S4R       0.145000
     62 H231        12.0680    -9.1950    43.2670 hn         1 S4R       0.366000
     63 H211        13.1590   -12.8330    41.4440 ha         1 S4R       0.201000
@<TRIPOS>BOND
     1     1    16 1   
     2     1    32 1   
     3     1    41 1   
     4     1    42 1   
     5     2    19 2   
     6     2    34 1   
     7     2    43 1   
     8     3    19 1   
     9     3    35 2   
    10     3    44 1   
    11     4     5 1   
    12     4     7 ar  
    13     4    20 ar  
    14     5     6 2   
    15     5    63 1   
    16     6    36 1   
    17     6    45 1   
    18     7    36 1   
    19     7    37 ar  
    20     8    37 ar  
    21     8    38 ar  
    22     8    46 1   
    23     9    21 1   
    24     9    31 1   
    25     9    40 2   
    26    10    11 1   
    27    10    14 1   
    28    10    47 1   
    29    10    48 1   
    30    11    31 1   
    31    11    49 1   
    32    11    50 1   
    33    12    13 1   
    34    12    31 1   
    35    12    51 1   
    36    12    52 1   
    37    13    14 1   
    38    13    53 1   
    39    13    54 1   
    40    14    32 1   
    41    14    55 1   
    42    15    16 1   
    43    15    32 1   
    44    15    56 1   
    45    15    57 1   
    46    16    17 1   
    47    16    34 1   
    48    17    18 1   
    49    17    58 1   
    50    17    59 1   
    51    18    33 3   
    52    19    20 1   
    53    20    38 ar  
    54    21    22 ar  
    55    21    25 ar  
    56    22    23 ar  
    57    22    30 1   
    58    23    26 1   
    59    23    39 ar  
    60    24    25 ar  
    61    24    39 ar  
    62    24    60 1   
    63    25    61 1   
    64    26    27 1   
    65    26    28 1   
    66    26    29 1   
    67    34    35 1   
    68    36    62 1   
@<TRIPOS>SUBSTRUCTURE
     1 S4R         1 TEMP              0 ****  ****    0 ROOT
