@<TRIPOS>MOLECULE
S4V
   25    26     1     0     0
SMALL
bcc


@<TRIPOS>ATOM
      1 N1         -28.3320   100.5580   135.3350 nu         1 S4V      -0.768300
      2 C4         -26.6320   100.0240   133.6800 ca         1 S4V       0.157600
      3 C5         -26.1100   100.2240   132.3960 ca         1 S4V      -0.198000
      4 C6         -27.8290   101.1230   136.4790 ca         1 S4V       0.669200
      5 C7         -26.5940   101.7910   136.5060 ca         1 S4V      -0.287300
      6 C8         -26.1580   102.3060   137.7080 ca         1 S4V      -0.061000
      7 C10        -28.1430   101.4920   138.7130 ca         1 S4V       0.443200
      8 N          -26.0210    99.1760   134.5740 nv         1 S4V      -0.814200
      9 C          -26.7140   101.0980   131.5080 ca         1 S4V      -0.088000
     10 C1         -27.8540   101.8040   131.8740 ca         1 S4V      -0.167000
     11 C2         -28.3690   101.6290   133.1500 ca         1 S4V      -0.105000
     12 C3         -27.7750   100.7550   134.0520 ca         1 S4V       0.056600
     13 C9         -26.9390   102.1580   138.8510 ca         1 S4V      -0.301300
     14 N2         -28.5840   100.9860   137.5670 nb         1 S4V      -0.752000
     15 H1         -29.3120   100.3220   135.3810 hn         1 S4V       0.441800
     16 H2         -25.2270    99.6720   132.0940 ha         1 S4V       0.132000
     17 H3         -26.0060   101.9090   135.6070 ha         1 S4V       0.154000
     18 H4         -25.2100   102.8270   137.7550 ha         1 S4V       0.132000
     19 H5         -28.7930   101.3570   139.5710 h4         1 S4V       0.013100
     20 H6         -26.6260    98.7940   135.2850 hn         1 S4V       0.399800
     21 H7         -25.4340    98.4680   134.1610 hn         1 S4V       0.399800
     22 H8         -26.2910   101.2230   130.5190 ha         1 S4V       0.130000
     23 H9         -28.3290   102.4850   131.1810 ha         1 S4V       0.135000
     24 H10        -29.2520   102.1740   133.4610 ha         1 S4V       0.134000
     25 H11        -26.6280   102.5490   139.8100 ha         1 S4V       0.140000
@<TRIPOS>BOND
     1     1     4 1   
     2     1    12 1   
     3     1    15 1   
     4     2     3 ar  
     5     2     8 1   
     6     2    12 ar  
     7     3     9 ar  
     8     3    16 1   
     9     4     5 ar  
    10     4    14 ar  
    11     5     6 ar  
    12     5    17 1   
    13     6    13 ar  
    14     6    18 1   
    15     7    13 ar  
    16     7    14 ar  
    17     7    19 1   
    18     8    20 1   
    19     8    21 1   
    20     9    10 ar  
    21     9    22 1   
    22    10    11 ar  
    23    10    23 1   
    24    11    12 ar  
    25    11    24 1   
    26    13    25 1   
@<TRIPOS>SUBSTRUCTURE
     1 S4V         1 TEMP              0 ****  ****    0 ROOT
