@<TRIPOS>MOLECULE
S4V
   25    26     1     0     0
SMALL
No Charge or Current Charge


@<TRIPOS>ATOM
      1 N1         -28.2950   101.0030   135.2890 nu         1 S4V      -0.961900
      2 C4         -26.5840   100.2070   133.6330 ca         1 S4V       0.296000
      3 C5         -26.1390   100.1900   132.3010 ca         1 S4V      -0.180000
      4 C6         -27.7520   101.3000   136.5060 ca         1 S4V       0.603900
      5 C7         -26.4440   101.7660   136.7060 ca         1 S4V      -0.204000
      6 C8         -26.0300   102.0620   138.0130 ca         1 S4V      -0.043000
      7 C10        -28.2560   101.4270   138.7340 ca         1 S4V       0.377900
      8 N          -25.8730    99.4720   134.5620 nv         1 S4V      -1.063000
      9 C          -26.8530   100.8690   131.3000 ca         1 S4V      -0.070000
     10 C1         -28.0280   101.5620   131.6260 ca         1 S4V      -0.149000
     11 C2         -28.4870   101.5890   132.9540 ca         1 S4V      -0.087000
     12 C3         -27.7730   100.9350   133.9770 ca         1 S4V       0.195000
     13 C9         -26.9630   101.8820   139.0460 ca         1 S4V      -0.218000
     14 N2         -28.6520   101.1430   137.4730 nb         1 S4V      -0.752000
     15 H1         -29.3090   100.9890   135.3620 hn         1 S4V       0.497000
     16 H2         -25.2390    99.6410   132.0340 ha         1 S4V       0.114000
     17 H3         -25.7710   101.9040   135.8670 ha         1 S4V       0.136000
     18 H4         -25.0240   102.4230   138.2170 ha         1 S4V       0.114000
     19 H5         -28.9990   101.2880   139.5190 h4         1 S4V       0.013100
     20 H6         -26.3100    99.3160   135.4670 hn         1 S4V       0.455000
     21 H7         -25.2010    98.7770   134.2450 hn         1 S4V       0.455000
     22 H8         -26.5000   100.8490   130.2700 ha         1 S4V       0.112000
     23 H9         -28.5850   102.0810   130.8480 ha         1 S4V       0.117000
     24 H10        -29.3980   102.1340   133.1920 ha         1 S4V       0.116000
     25 H11        -26.6970   102.0980   140.0770 ha         1 S4V       0.122000
@<TRIPOS>BOND
     1     1     4 1   
     2     1    12 1   
     3     1    15 1   
     4     2     3 ar  
     5     2     8 1   
     6     2    12 ar  
     7     3     9 ar  
     8     3    16 1   
     9     4     5 ar  
    10     4    14 ar  
    11     5     6 ar  
    12     5    17 1   
    13     6    13 ar  
    14     6    18 1   
    15     7    13 ar  
    16     7    14 ar  
    17     7    19 1   
    18     8    20 1   
    19     8    21 1   
    20     9    10 ar  
    21     9    22 1   
    22    10    11 ar  
    23    10    23 1   
    24    11    12 ar  
    25    11    24 1   
    26    13    25 1   
@<TRIPOS>SUBSTRUCTURE
     1 S4V         1 TEMP              0 ****  ****    0 ROOT
