@<TRIPOS>MOLECULE
S4W
   48    52     1     0     0
SMALL
No Charge or Current Charge


@<TRIPOS>ATOM
      1 C1          18.8410    31.5820   -15.1080 c3         1 S4W       0.294100
      2 C2          19.9280    31.0900   -16.0330 cc         1 S4W      -0.149300
      3 C3          21.1710    30.6680   -15.4330 cc         1 S4W      -0.090000
      4 C7          20.8710    30.4510   -19.5360 cc         1 S4W      -0.285100
      5 C8          19.7480    31.0460   -17.4150 cd         1 S4W      -0.096000
      6 C9          19.5480    33.2820   -13.4290 cc         1 S4W       0.693900
      7 C10         20.2660    34.4540   -11.8460 cc         1 S4W       0.467500
      8 C11         20.6610    35.6620   -11.1090 ca         1 S4W      -0.128500
      9 C12         20.5380    36.9410   -11.6950 ca         1 S4W      -0.075000
     10 C13         20.9170    38.0930   -10.9830 ca         1 S4W      -0.097500
     11 C14         21.4370    38.0040    -9.6720 cp         1 S4W      -0.018000
     12 C15         21.5450    36.7210    -9.0870 ca         1 S4W      -0.097500
     13 C16         21.1670    35.5660    -9.7940 ca         1 S4W      -0.075000
     14 C19         21.2070    41.4760    -8.1050 ca         1 S4W      -0.109000
     15 C20         22.4700    41.6170    -7.5100 ca         1 S4W      -0.097000
     16 C21         23.4140    40.5830    -7.6220 ca         1 S4W      -0.105000
     17 C22         23.1000    39.4040    -8.3210 ca         1 S4W       0.137000
     18 Cl          24.3600    38.1770    -8.4600 cl         1 S4W      -0.207000
     19 C18         20.8880    40.3000    -8.8050 ca         1 S4W      -0.093000
     20 C17         21.8200    39.2390    -8.9220 cp         1 S4W      -0.033000
     21 N4          20.3200    33.1990   -11.4240 nd         1 S4W      -0.331000
     22 N3          19.8490    32.4340   -12.4610 nd         1 S4W      -0.451000
     23 O           19.7840    34.5720   -13.1080 os         1 S4W      -0.325000
     24 N           19.0400    32.9800   -14.6700 nh         1 S4W      -0.791300
     25 C           18.7760    34.0440   -15.6620 c3         1 S4W       0.220100
     26 N2          20.8240    30.5770   -18.1820 na         1 S4W       0.120100
     27 C6          22.1540    29.9480   -19.7510 cd         1 S4W      -0.027400
     28 N1          22.8810    29.7680   -18.5630 nd         1 S4W      -0.288600
     29 C5          21.9880    30.1820   -17.6140 cd         1 S4W      -0.076000
     30 C4          22.2110    30.2120   -16.2060 cd         1 S4W      -0.073000
     31 H1          17.8740    31.4940   -15.6240 h1         1 S4W       0.075200
     32 H2          18.7780    30.9040   -14.2460 h1         1 S4W       0.075200
     33 H3          21.2810    30.7180   -14.3540 ha         1 S4W       0.140000
     34 H4          20.0560    30.7060   -20.2030 h4         1 S4W       0.230000
     35 H5          18.8500    31.3460   -17.9410 h4         1 S4W       0.141000
     36 H6          20.1480    37.0520   -12.7050 ha         1 S4W       0.132000
     37 H7          20.8150    39.0670   -11.4560 ha         1 S4W       0.123500
     38 H8          21.9180    36.6210    -8.0710 ha         1 S4W       0.123500
     39 H9          21.2670    34.5960    -9.3120 ha         1 S4W       0.132000
     40 H10         20.4740    42.2760    -8.0220 ha         1 S4W       0.120000
     41 H11         22.7190    42.5270    -6.9690 ha         1 S4W       0.120000
     42 H12         24.3970    40.6980    -7.1720 ha         1 S4W       0.131000
     43 H13         19.9020    40.2020    -9.2560 ha         1 S4W       0.121000
     44 H14         18.1030    34.8030   -15.2430 h1         1 S4W       0.049033
     45 H15         19.7150    34.5350   -15.9530 h1         1 S4W       0.049033
     46 H16         18.3080    33.6380   -16.5690 h1         1 S4W       0.049033
     47 H17         22.6010    29.7010   -20.7130 h4         1 S4W       0.228000
     48 H18         23.1510    29.8930   -15.7670 ha         1 S4W       0.147000
@<TRIPOS>BOND
     1     1     2 1   
     2     1    24 1   
     3     1    31 1   
     4     1    32 1   
     5     2     3 1   
     6     2     5 2   
     7     3    30 2   
     8     3    33 1   
     9     4    26 1   
    10     4    27 2   
    11     4    34 1   
    12     5    26 1   
    13     5    35 1   
    14     6    22 2   
    15     6    23 1   
    16     6    24 1   
    17     7     8 1   
    18     7    21 2   
    19     7    23 1   
    20     8     9 ar  
    21     8    13 ar  
    22     9    10 ar  
    23     9    36 1   
    24    10    11 ar  
    25    10    37 1   
    26    11    12 ar  
    27    11    20 1   
    28    12    13 ar  
    29    12    38 1   
    30    13    39 1   
    31    14    15 ar  
    32    14    19 ar  
    33    14    40 1   
    34    15    16 ar  
    35    15    41 1   
    36    16    17 ar  
    37    16    42 1   
    38    17    18 1   
    39    17    20 ar  
    40    19    20 ar  
    41    19    43 1   
    42    21    22 1   
    43    24    25 1   
    44    25    44 1   
    45    25    45 1   
    46    25    46 1   
    47    26    29 1   
    48    27    28 1   
    49    27    47 1   
    50    28    29 2   
    51    29    30 1   
    52    30    48 1   
@<TRIPOS>SUBSTRUCTURE
     1 S4W         1 TEMP              0 ****  ****    0 ROOT
