@<TRIPOS>MOLECULE
S4W
   48    52     1     0     0
SMALL
abcg2


@<TRIPOS>ATOM
      1 C1          18.9550    31.7840   -15.1620 c3         1 S4W       0.294100
      2 C2          19.9970    31.2020   -16.0830 cc         1 S4W      -0.149300
      3 C3          21.3460    31.0510   -15.6480 cc         1 S4W      -0.090000
      4 C7          20.5090    29.8280   -19.4690 cc         1 S4W      -0.285100
      5 C8          19.6540    30.8220   -17.3440 cd         1 S4W      -0.096000
      6 C9          19.7180    33.3920   -13.5240 cc         1 S4W       0.693900
      7 C10         20.3870    34.5410   -11.8380 cc         1 S4W       0.467500
      8 C11         20.7490    35.7290   -11.0890 ca         1 S4W      -0.128500
      9 C12         20.6950    36.9970   -11.6740 ca         1 S4W      -0.075000
     10 C13         21.0360    38.1210   -10.9350 ca         1 S4W      -0.097500
     11 C14         21.4450    38.0100    -9.6050 cp         1 S4W      -0.018000
     12 C15         21.4960    36.7360    -9.0260 ca         1 S4W      -0.097500
     13 C16         21.1510    35.6120    -9.7520 ca         1 S4W      -0.075000
     14 C19         21.0450    41.4060    -8.0030 ca         1 S4W      -0.109000
     15 C20         22.2500    41.5640    -7.3270 ca         1 S4W      -0.097000
     16 C21         23.2180    40.5710    -7.4010 ca         1 S4W      -0.105000
     17 C22         22.9690    39.4220    -8.1410 ca         1 S4W       0.137000
     18 CL          24.2600    38.2370    -8.2470 cl         1 S4W      -0.207000
     19 C18         20.8120    40.2520    -8.7380 ca         1 S4W      -0.093000
     20 C17         21.7620    39.2260    -8.8200 cp         1 S4W      -0.033000
     21 N4          20.3750    33.3050   -11.4690 nd         1 S4W      -0.331000
     22 N3          19.9490    32.5380   -12.5540 nd         1 S4W      -0.451000
     23 O           19.9790    34.6710   -13.1500 os         1 S4W      -0.325000
     24 N           19.2620    33.1560   -14.7590 nh         1 S4W      -0.791300
     25 C           19.1610    34.1930   -15.7760 c3         1 S4W       0.220100
     26 N2          20.6040    30.2870   -18.1730 na         1 S4W       0.120100
     27 C6          21.7750    29.4100   -19.7990 cd         1 S4W      -0.027400
     28 N1          22.6520    29.5880   -18.7650 nd         1 S4W      -0.288600
     29 C5          21.9360    30.1230   -17.7770 cd         1 S4W      -0.076000
     30 C4          22.2970    30.5240   -16.4750 cd         1 S4W      -0.073000
     31 H1          17.9830    31.7900   -15.6590 h1         1 S4W       0.075200
     32 H2          18.8670    31.1840   -14.2590 h1         1 S4W       0.075200
     33 H3          21.6110    31.3590   -14.6450 ha         1 S4W       0.140000
     34 H4          19.5810    29.8430   -20.0120 h4         1 S4W       0.230000
     35 H5          18.6570    30.9130   -17.7490 h4         1 S4W       0.141000
     36 H6          20.3890    37.1060   -12.7060 ha         1 S4W       0.132000
     37 H7          20.9920    39.0970   -11.4000 ha         1 S4W       0.123500
     38 H8          21.7940    36.6290    -7.9920 ha         1 S4W       0.123500
     39 H9          21.1840    34.6360    -9.2870 ha         1 S4W       0.132000
     40 H10         20.2860    42.1750    -7.9540 ha         1 S4W       0.120000
     41 H11         22.4440    42.4570    -6.7480 ha         1 S4W       0.120000
     42 H12         24.1680    40.6870    -6.8980 ha         1 S4W       0.131000
     43 H13         19.8690    40.1220    -9.2520 ha         1 S4W       0.121000
     44 H14         19.3580    35.1660   -15.3400 h1         1 S4W       0.049033
     45 H15         19.8800    34.0100   -16.5790 h1         1 S4W       0.049033
     46 H16         18.1550    34.1880   -16.1990 h1         1 S4W       0.049033
     47 H17         22.0920    28.9860   -20.7390 h4         1 S4W       0.228000
     48 H18         23.3240    30.4010   -16.1610 ha         1 S4W       0.147000
@<TRIPOS>BOND
     1     1     2 1   
     2     1    24 1   
     3     1    31 1   
     4     1    32 1   
     5     2     3 1   
     6     2     5 2   
     7     3    30 2   
     8     3    33 1   
     9     4    26 1   
    10     4    27 2   
    11     4    34 1   
    12     5    26 1   
    13     5    35 1   
    14     6    22 2   
    15     6    23 1   
    16     6    24 1   
    17     7     8 1   
    18     7    21 2   
    19     7    23 1   
    20     8     9 ar  
    21     8    13 ar  
    22     9    10 ar  
    23     9    36 1   
    24    10    11 ar  
    25    10    37 1   
    26    11    12 ar  
    27    11    20 1   
    28    12    13 ar  
    29    12    38 1   
    30    13    39 1   
    31    14    15 ar  
    32    14    19 ar  
    33    14    40 1   
    34    15    16 ar  
    35    15    41 1   
    36    16    17 ar  
    37    16    42 1   
    38    17    18 1   
    39    17    20 ar  
    40    19    20 ar  
    41    19    43 1   
    42    21    22 1   
    43    24    25 1   
    44    25    44 1   
    45    25    45 1   
    46    25    46 1   
    47    26    29 1   
    48    27    28 1   
    49    27    47 1   
    50    28    29 2   
    51    29    30 1   
    52    30    48 1   
@<TRIPOS>SUBSTRUCTURE
     1 S4W         1 TEMP              0 ****  ****    0 ROOT
