@<TRIPOS>MOLECULE
S4X
   72    78     1     0     0
SMALL
abcg2


@<TRIPOS>ATOM
      1 N1         -22.3680     6.5600    29.0160 n3         1 S4X      -0.770600
      2 N3         -16.4070     4.2880    26.1090 nb         1 S4X      -0.656000
      3 C4         -18.7660    10.2330    29.2130 c6         1 S4X      -0.084400
      4 C5         -16.8630     8.7970    31.8370 c6         1 S4X      -0.079900
      5 C6         -16.6970     8.4790    30.3430 c6         1 S4X      -0.054700
      6 C7         -18.0110     7.9210    29.7880 c6         1 S4X      -0.084400
      7 C8         -19.2900     9.2640    31.4680 c6         1 S4X      -0.112400
      8 C10        -21.5570     8.9010    29.2340 c          1 S4X       0.588100
      9 C13        -21.9120     4.2790    28.3500 c6         1 S4X      -0.092400
     10 C15        -18.6970     4.9230    26.4680 ca         1 S4X      -0.089000
     11 C17        -16.1110     5.5420    25.8510 ca         1 S4X       0.367900
     12 C20        -17.6530     8.9180    25.5860 ca         1 S4X      -0.110000
     13 C21        -18.9980     8.6000    25.8780 ca         1 S4X      -0.084000
     14 C22        -19.3710     7.3130    26.1720 ca         1 S4X      -0.103000
     15 C24        -22.8670     6.2220    30.3400 c6         1 S4X       0.224100
     16 C26        -22.8210     4.3730    32.0310 ca         1 S4X      -0.100000
     17 C28        -22.1750     3.8510    29.7710 ca         1 S4X      -0.054300
     18 O2         -21.8340    10.0900    29.4120 o          1 S4X      -0.624100
     19 N          -20.3670     8.3300    29.4540 ns         1 S4X      -0.488900
     20 C9         -19.1420     8.9470    29.9680 c6         1 S4X       0.142400
     21 C2         -17.4510    10.7940    29.7730 c6         1 S4X      -0.054700
     22 C1         -17.6180    11.1090    31.2670 c6         1 S4X      -0.079900
     23 C3         -16.3290     9.7630    29.5870 c6         1 S4X      -0.073400
     24 C          -17.9780     9.8310    32.0210 c6         1 S4X       0.179000
     25 O          -18.1300    10.1840    33.4060 oh         1 S4X      -0.661000
     26 C11        -22.6100     7.9410    28.6630 c3         1 S4X       0.094800
     27 C25        -22.6020     4.7860    30.7160 ca         1 S4X      -0.059300
     28 C29        -21.9760     2.5230    30.1470 ca         1 S4X      -0.088000
     29 C30        -22.1990     2.1410    31.4580 ca         1 S4X       0.126000
     30 CL         -21.9480     0.4670    31.9210 cl         1 S4X      -0.209000
     31 C27        -22.6220     3.0550    32.4150 ca         1 S4X      -0.090000
     32 C12        -22.7120     5.5510    28.0280 c6         1 S4X       0.194800
     33 C14        -20.4220     4.5730    28.1400 c          1 S4X       0.610100
     34 O1         -19.6650     4.8730    29.0550 o          1 S4X      -0.569100
     35 N2         -20.0150     4.5430    26.8460 ns         1 S4X      -0.182000
     36 C23        -18.4070     6.2800    26.1730 ca         1 S4X      -0.007000
     37 C19        -16.6980     7.9340    25.5770 ca         1 S4X      -0.081000
     38 C18        -17.0560     6.5960    25.8600 ca         1 S4X      -0.098000
     39 C16        -17.6940     3.9910    26.4190 ca         1 S4X       0.337900
     40 H3         -18.6580    10.0050    28.1520 hc         1 S4X       0.057950
     41 H4         -17.1140     7.8880    32.3930 hc         1 S4X       0.051450
     42 H5         -15.9310     9.1950    32.2470 hc         1 S4X       0.051450
     43 H6         -15.9080     7.7340    30.2140 hc         1 S4X       0.054200
     44 H7         -18.2780     6.9940    30.2990 hc         1 S4X       0.057950
     45 H8         -17.9050     7.6880    28.7270 hc         1 S4X       0.057950
     46 H9         -20.0930     9.9880    31.6170 hc         1 S4X       0.056700
     47 H10        -19.5530     8.3500    32.0080 hc         1 S4X       0.056700
     48 H11        -22.2120     3.4860    27.6620 hc         1 S4X       0.068700
     49 H12        -15.0760     5.7710    25.6120 h4         1 S4X       0.023100
     50 H13        -17.3810     9.9430    25.3700 ha         1 S4X       0.121000
     51 H14        -19.7400     9.3880    25.8820 ha         1 S4X       0.121000
     52 H15        -20.3980     7.0800    26.4070 ha         1 S4X       0.117000
     53 H16        -22.3990     6.8820    31.0740 h1         1 S4X       0.051700
     54 H17        -23.9550     6.4050    30.4010 h1         1 S4X       0.051700
     55 H18        -23.1510     5.0950    32.7690 ha         1 S4X       0.120000
     56 H19        -20.3580     7.3260    29.3070 hn         1 S4X       0.346500
     57 H20        -17.2000    11.7120    29.2370 hc         1 S4X       0.054200
     58 H21        -16.6910    11.5190    31.6760 hc         1 S4X       0.051450
     59 H22        -18.4080    11.8510    31.4140 hc         1 S4X       0.051450
     60 H23        -16.1950     9.5440    28.5240 hc         1 S4X       0.041700
     61 H24        -15.3840    10.1650    29.9640 hc         1 S4X       0.041700
     62 H25        -18.3330     9.3770    33.8990 ho         1 S4X       0.438000
     63 H26        -22.5650     8.0450    27.5760 h1         1 S4X       0.061200
     64 H27        -23.5950     8.3040    28.9860 h1         1 S4X       0.061200
     65 H28        -21.6450     1.7980    29.4150 ha         1 S4X       0.128000
     66 H29        -22.7920     2.7440    33.4360 ha         1 S4X       0.133000
     67 H30        -22.4590     5.9200    27.0360 h1         1 S4X       0.043700
     68 H31        -23.7860     5.3090    28.0310 h1         1 S4X       0.043700
     69 H32        -20.6570     4.2260    26.1340 hn         1 S4X       0.157000
     70 H33        -15.6630     8.1640    25.3530 ha         1 S4X       0.120000
     71 H34        -17.9150     2.9540    26.6470 h4         1 S4X       0.026100
     72 H2         -19.5640    10.9660    29.3170 hc         1 S4X       0.057950
@<TRIPOS>BOND
     1     1    15 1   
     2     1    26 1   
     3     1    32 1   
     4     2    11 ar  
     5     2    39 ar  
     6     3    20 1   
     7     3    21 1   
     8     3    40 1   
     9     3    72 1   
    10     4     5 1   
    11     4    24 1   
    12     4    41 1   
    13     4    42 1   
    14     5     6 1   
    15     5    23 1   
    16     5    43 1   
    17     6    20 1   
    18     6    44 1   
    19     6    45 1   
    20     7    20 1   
    21     7    24 1   
    22     7    46 1   
    23     7    47 1   
    24     8    18 2   
    25     8    19 1   
    26     8    26 1   
    27     9    17 1   
    28     9    32 1   
    29     9    33 1   
    30     9    48 1   
    31    10    35 1   
    32    10    36 ar  
    33    10    39 ar  
    34    11    38 ar  
    35    11    49 1   
    36    12    13 ar  
    37    12    37 ar  
    38    12    50 1   
    39    13    14 ar  
    40    13    51 1   
    41    14    36 ar  
    42    14    52 1   
    43    15    27 1   
    44    15    53 1   
    45    15    54 1   
    46    16    27 ar  
    47    16    31 ar  
    48    16    55 1   
    49    17    27 ar  
    50    17    28 ar  
    51    19    20 1   
    52    19    56 1   
    53    21    22 1   
    54    21    23 1   
    55    21    57 1   
    56    22    24 1   
    57    22    58 1   
    58    22    59 1   
    59    23    60 1   
    60    23    61 1   
    61    24    25 1   
    62    25    62 1   
    63    26    63 1   
    64    26    64 1   
    65    28    29 ar  
    66    28    65 1   
    67    29    30 1   
    68    29    31 ar  
    69    31    66 1   
    70    32    67 1   
    71    32    68 1   
    72    33    34 2   
    73    33    35 1   
    74    35    69 1   
    75    36    38 ar  
    76    37    38 ar  
    77    37    70 1   
    78    39    71 1   
@<TRIPOS>SUBSTRUCTURE
     1 S4X         1 TEMP              0 ****  ****    0 ROOT
