@<TRIPOS>MOLECULE
S4X
   72    78     1     0     0
SMALL
No Charge or Current Charge


@<TRIPOS>ATOM
      1 N1         -22.2360     6.3840    28.8490 n3         1 S4X      -0.770600
      2 N3         -16.5870     4.2130    26.8840 nb         1 S4X      -0.656000
      3 C4         -18.7510    10.3720    29.0830 c6         1 S4X      -0.084400
      4 C5         -16.8530     9.0930    31.8560 c6         1 S4X      -0.079900
      5 C6         -16.6170     8.7360    30.3610 c6         1 S4X      -0.054700
      6 C7         -17.9080     8.0950    29.7790 c6         1 S4X      -0.084400
      7 C8         -19.3260     9.4270    31.3880 c6         1 S4X      -0.112400
      8 C10        -21.5690     8.8730    29.1500 c          1 S4X       0.588100
      9 C13        -22.4010     3.9840    28.1540 c6         1 S4X      -0.092400
     10 C15        -18.8640     5.0870    26.9780 ca         1 S4X      -0.089000
     11 C17        -16.1790     5.4050    26.3940 ca         1 S4X       0.367900
     12 C20        -17.4570     8.7730    25.4390 ca         1 S4X      -0.110000
     13 C21        -18.8270     8.6170    25.7070 ca         1 S4X      -0.084000
     14 C22        -19.3120     7.4000    26.2160 ca         1 S4X      -0.103000
     15 C24        -22.4870     6.0710    30.2840 c6         1 S4X       0.224100
     16 C26        -22.2700     4.2130    32.0000 ca         1 S4X      -0.100000
     17 C28        -22.3460     3.5940    29.6400 ca         1 S4X      -0.054300
     18 O2         -21.9220    10.0020    29.4680 o          1 S4X      -0.624100
     19 N          -20.2860     8.3960    29.3210 ns         1 S4X      -0.488900
     20 C9         -19.1150     9.0810    29.8810 c6         1 S4X       0.142400
     21 C2         -17.4690    11.0260    29.6720 c6         1 S4X      -0.054700
     22 C1         -17.7130    11.3790    31.1690 c6         1 S4X      -0.079900
     23 C3         -16.2830    10.0270    29.5630 c6         1 S4X      -0.073400
     24 C          -18.0440    10.0880    31.9770 c6         1 S4X       0.179000
     25 O          -18.2600    10.4220    33.3490 oh         1 S4X      -0.661000
     26 C11        -22.5250     7.8220    28.5220 c3         1 S4X       0.094800
     27 C25        -22.3510     4.5890    30.6440 ca         1 S4X      -0.059300
     28 C29        -22.2620     2.2360    30.0080 ca         1 S4X      -0.088000
     29 C30        -22.1790     1.8710    31.3600 ca         1 S4X       0.126000
     30 Cl         -22.0700     0.1730    31.8060 cl         1 S4X      -0.209000
     31 C27        -22.1810     2.8570    32.3570 ca         1 S4X      -0.090000
     32 C12        -22.9510     5.4250    27.9710 c6         1 S4X       0.194800
     33 C14        -20.9860     3.7710    27.5650 c          1 S4X       0.610100
     34 O1         -20.5850     2.6490    27.2750 o          1 S4X      -0.569100
     35 N2         -20.2250     4.9120    27.3560 ns         1 S4X      -0.182000
     36 C23        -18.4270     6.3260    26.4570 ca         1 S4X      -0.007000
     37 C19        -16.5710     7.7070    25.6650 ca         1 S4X      -0.081000
     38 C18        -17.0550     6.4840    26.1680 ca         1 S4X      -0.098000
     39 C16        -17.9010     4.0660    27.1700 ca         1 S4X       0.337900
     40 H3         -18.5960    10.1350    28.0230 hc         1 S4X       0.057950
     41 H4         -17.0550     8.1790    32.4320 hc         1 S4X       0.051450
     42 H5         -15.9420     9.5350    32.2840 hc         1 S4X       0.051450
     43 H6         -15.7830     8.0250    30.2780 hc         1 S4X       0.054200
     44 H7         -18.1320     7.1590    30.3110 hc         1 S4X       0.057950
     45 H8         -17.7350     7.8160    28.7320 hc         1 S4X       0.057950
     46 H9         -20.1780    10.1100    31.5050 hc         1 S4X       0.056700
     47 H10        -19.5790     8.5170    31.9500 hc         1 S4X       0.056700
     48 H11        -23.0630     3.2700    27.6470 hc         1 S4X       0.068700
     49 H12        -15.1150     5.4970    26.1780 h4         1 S4X       0.023100
     50 H13        -17.0840     9.7180    25.0500 ha         1 S4X       0.121000
     51 H14        -19.5130     9.4410    25.5240 ha         1 S4X       0.121000
     52 H15        -20.3770     7.3050    26.4090 ha         1 S4X       0.117000
     53 H16        -21.8000     6.6470    30.9210 h1         1 S4X       0.051700
     54 H17        -23.5050     6.3840    30.5600 h1         1 S4X       0.051700
     55 H18        -22.2810     4.9740    32.7780 ha         1 S4X       0.120000
     56 H19        -20.1860     7.4210    29.0640 hn         1 S4X       0.346500
     57 H20        -17.2310    11.9410    29.1120 hc         1 S4X       0.054200
     58 H21        -16.8250    11.8710    31.5880 hc         1 S4X       0.051450
     59 H22        -18.5360    12.1020    31.2550 hc         1 S4X       0.051450
     60 H23        -16.0890     9.7810    28.5090 hc         1 S4X       0.041700
     61 H24        -15.3620    10.4850    29.9490 hc         1 S4X       0.041700
     62 H25        -18.4620     9.5830    33.8150 ho         1 S4X       0.438000
     63 H26        -22.4530     7.9720    27.4380 h1         1 S4X       0.061200
     64 H27        -23.5490     8.0850    28.8180 h1         1 S4X       0.061200
     65 H28        -22.2550     1.4610    29.2450 ha         1 S4X       0.128000
     66 H29        -22.1180     2.5720    33.4040 ha         1 S4X       0.133000
     67 H30        -22.8530     5.7140    26.9140 h1         1 S4X       0.043700
     68 H31        -24.0260     5.4330    28.2040 h1         1 S4X       0.043700
     69 H32        -20.7080     5.7700    27.5970 hn         1 S4X       0.157000
     70 H33        -15.5110     7.8330    25.4490 ha         1 S4X       0.120000
     71 H34        -18.1740     3.1040    27.5990 h4         1 S4X       0.026100
     72 H2         -19.5760    11.0960    29.1180 hc         1 S4X       0.057950
@<TRIPOS>BOND
     1     1    15 1   
     2     1    26 1   
     3     1    32 1   
     4     2    11 ar  
     5     2    39 ar  
     6     3    20 1   
     7     3    21 1   
     8     3    40 1   
     9     3    72 1   
    10     4     5 1   
    11     4    24 1   
    12     4    41 1   
    13     4    42 1   
    14     5     6 1   
    15     5    23 1   
    16     5    43 1   
    17     6    20 1   
    18     6    44 1   
    19     6    45 1   
    20     7    20 1   
    21     7    24 1   
    22     7    46 1   
    23     7    47 1   
    24     8    18 2   
    25     8    19 1   
    26     8    26 1   
    27     9    17 1   
    28     9    32 1   
    29     9    33 1   
    30     9    48 1   
    31    10    35 1   
    32    10    36 ar  
    33    10    39 ar  
    34    11    38 ar  
    35    11    49 1   
    36    12    13 ar  
    37    12    37 ar  
    38    12    50 1   
    39    13    14 ar  
    40    13    51 1   
    41    14    36 ar  
    42    14    52 1   
    43    15    27 1   
    44    15    53 1   
    45    15    54 1   
    46    16    27 ar  
    47    16    31 ar  
    48    16    55 1   
    49    17    27 ar  
    50    17    28 ar  
    51    19    20 1   
    52    19    56 1   
    53    21    22 1   
    54    21    23 1   
    55    21    57 1   
    56    22    24 1   
    57    22    58 1   
    58    22    59 1   
    59    23    60 1   
    60    23    61 1   
    61    24    25 1   
    62    25    62 1   
    63    26    63 1   
    64    26    64 1   
    65    28    29 ar  
    66    28    65 1   
    67    29    30 1   
    68    29    31 ar  
    69    31    66 1   
    70    32    67 1   
    71    32    68 1   
    72    33    34 2   
    73    33    35 1   
    74    35    69 1   
    75    36    38 ar  
    76    37    38 ar  
    77    37    70 1   
    78    39    71 1   
@<TRIPOS>SUBSTRUCTURE
     1 S4X         1 TEMP              0 ****  ****    0 ROOT
