@<TRIPOS>MOLECULE
S4Y
   29    30     1     0     0
SMALL
bcc


@<TRIPOS>ATOM
      1 C10         -8.8890    80.5660   143.8630 ca         1 S4Y      -0.101500
      2 C15         -8.9460    82.9600   143.8420 ca         1 S4Y      -0.101500
      3 C03        -12.1690    78.7010   145.5510 c          1 S4Y       0.677100
      4 C05        -12.2350    80.1770   145.9320 c5         1 S4Y       0.082100
      5 C06        -13.1000    80.9720   144.9390 c5         1 S4Y      -0.096400
      6 C07        -12.0570    81.4880   143.9570 c5         1 S4Y      -0.114400
      7 C08        -10.8740    81.7520   144.8820 c5         1 S4Y       0.194400
      8 C09         -9.5380    81.7520   144.1950 ca         1 S4Y      -0.089300
      9 C11         -7.6780    80.5850   143.1880 ca         1 S4Y      -0.128000
     10 C12         -7.1120    81.8030   142.8410 ca         1 S4Y       0.032400
     11 C14         -7.7370    82.9970   143.1610 ca         1 S4Y      -0.128000
     12 N01        -14.3400    78.4990   146.5330 n8         1 S4Y      -0.635800
     13 N02        -13.2400    77.9600   145.8880 ns         1 S4Y      -0.478300
     14 O04        -11.2190    78.2130   144.9590 o          1 S4Y      -0.588100
     15 O16        -10.9400    80.7330   145.8660 os         1 S4Y      -0.389600
     16 CL13        -5.5960    81.8310   141.9980 cl         1 S4Y      -0.119400
     17 H101        -9.3320    79.6160   144.1300 ha         1 S4Y       0.150000
     18 H151        -9.4290    83.8940   144.1010 ha         1 S4Y       0.150000
     19 H051       -12.6200    80.2730   146.9500 h1         1 S4Y       0.090700
     20 H062       -13.8760    80.3750   144.4650 hc         1 S4Y       0.058700
     21 H061       -13.5890    81.8000   145.4540 hc         1 S4Y       0.058700
     22 H072       -11.8080    80.7270   143.2140 hc         1 S4Y       0.064700
     23 H071       -12.3720    82.3870   143.4280 hc         1 S4Y       0.064700
     24 H081       -11.0150    82.7320   145.3610 h1         1 S4Y       0.046700
     25 H111        -7.1800    79.6580   142.9380 ha         1 S4Y       0.146500
     26 H141        -7.2880    83.9440   142.8960 ha         1 S4Y       0.146500
     27 H012       -15.1550    78.4180   145.9380 hn         1 S4Y       0.350300
     28 H011       -14.5210    77.9750   147.3790 hn         1 S4Y       0.350300
     29 H021       -13.2470    76.9870   145.6110 hn         1 S4Y       0.307500
@<TRIPOS>BOND
     1     1     8 ar  
     2     1     9 ar  
     3     1    17 1   
     4     2     8 ar  
     5     2    11 ar  
     6     2    18 1   
     7     3     4 1   
     8     3    13 1   
     9     3    14 2   
    10     4     5 1   
    11     4    15 1   
    12     4    19 1   
    13     5     6 1   
    14     5    20 1   
    15     5    21 1   
    16     6     7 1   
    17     6    22 1   
    18     6    23 1   
    19     7     8 1   
    20     7    15 1   
    21     7    24 1   
    22     9    10 ar  
    23     9    25 1   
    24    10    11 ar  
    25    10    16 1   
    26    11    26 1   
    27    12    13 1   
    28    12    27 1   
    29    12    28 1   
    30    13    29 1   
@<TRIPOS>SUBSTRUCTURE
     1 S4Y         1 TEMP              0 ****  ****    0 ROOT
