@<TRIPOS>MOLECULE
S4Y
   29    30     1     0     0
SMALL
No Charge or Current Charge


@<TRIPOS>ATOM
      1 C10         -8.7710    80.6480   143.6150 ca         1 S4Y      -0.083500
      2 C15         -8.8890    83.0450   143.9990 ca         1 S4Y      -0.083500
      3 C03        -12.4010    78.4550   145.5780 c          1 S4Y       0.610100
      4 C05        -12.2340    80.0040   145.8040 c5         1 S4Y       0.105300
      5 C06        -13.0170    80.7970   144.6980 c5         1 S4Y      -0.096400
      6 C07        -11.8810    81.3250   143.7830 c5         1 S4Y      -0.114400
      7 C08        -10.8030    81.6030   144.8530 c5         1 S4Y       0.217600
      8 C09         -9.4590    81.7630   144.1410 ca         1 S4Y      -0.089300
      9 C11         -7.5370    80.8130   142.9600 ca         1 S4Y      -0.110000
     10 C12         -6.9810    82.0940   142.8260 ca         1 S4Y       0.124000
     11 C14         -7.6550    83.2100   143.3450 ca         1 S4Y      -0.110000
     12 N01        -14.5970    78.7050   146.8800 n8         1 S4Y      -0.746200
     13 N02        -13.5670    77.9450   146.1700 ns         1 S4Y      -0.411300
     14 O04        -11.6090    77.7020   145.0220 o          1 S4Y      -0.588100
     15 O16        -10.8390    80.4090   145.6510 os         1 S4Y      -0.436000
     16 Cl13        -5.4380    82.3010   142.0070 cl         1 S4Y      -0.211000
     17 H101        -9.1930    79.6490   143.7140 ha         1 S4Y       0.132000
     18 H151        -9.4040    83.9180   144.3970 ha         1 S4Y       0.132000
     19 H051       -12.5720    80.2660   146.8140 h1         1 S4Y       0.090700
     20 H062       -13.7400    80.1800   144.1530 hc         1 S4Y       0.058700
     21 H061       -13.5800    81.6240   145.1470 hc         1 S4Y       0.058700
     22 H072       -11.5610    80.5660   143.0600 hc         1 S4Y       0.064700
     23 H071       -12.1660    82.2240   143.2250 hc         1 S4Y       0.064700
     24 H081       -11.0530    82.4700   145.4810 h1         1 S4Y       0.046700
     25 H111        -7.0140    79.9490   142.5580 ha         1 S4Y       0.128500
     26 H141        -7.2230    84.2020   143.2390 ha         1 S4Y       0.128500
     27 H012       -15.5190    78.6060   146.4270 hn         1 S4Y       0.405500
     28 H011       -14.7170    78.3640   147.8480 hn         1 S4Y       0.405500
     29 H021       -13.6870    76.9360   146.0650 hn         1 S4Y       0.307500
@<TRIPOS>BOND
     1     1     8 ar  
     2     1     9 ar  
     3     1    17 1   
     4     2     8 ar  
     5     2    11 ar  
     6     2    18 1   
     7     3     4 1   
     8     3    13 1   
     9     3    14 2   
    10     4     5 1   
    11     4    15 1   
    12     4    19 1   
    13     5     6 1   
    14     5    20 1   
    15     5    21 1   
    16     6     7 1   
    17     6    22 1   
    18     6    23 1   
    19     7     8 1   
    20     7    15 1   
    21     7    24 1   
    22     9    10 ar  
    23     9    25 1   
    24    10    11 ar  
    25    10    16 1   
    26    11    26 1   
    27    12    13 1   
    28    12    27 1   
    29    12    28 1   
    30    13    29 1   
@<TRIPOS>SUBSTRUCTURE
     1 S4Y         1 TEMP              0 ****  ****    0 ROOT
