@<TRIPOS>MOLECULE
S50
   43    46     1     0     0
SMALL
abcg2


@<TRIPOS>ATOM
      1 C16        -44.7670   -32.7270     0.8250 ca         1 S50       0.173000
      2 C17        -44.9770   -32.3800    -0.5210 ca         1 S50       0.336900
      3 C11        -48.8630   -31.3260     5.2230 c5         1 S50      -0.086900
      4 C10        -49.0010   -31.0870     6.7260 c5         1 S50      -0.079400
      5 C19        -45.7180   -34.4470    -1.0010 ca         1 S50       0.362500
      6 C02        -48.0140   -29.3390     1.5710 cc         1 S50       0.247300
      7 C03        -46.7350   -29.8980     1.3930 cc         1 S50      -0.140000
      8 C04        -46.4240   -30.4550     2.6190 cd         1 S50      -0.348500
      9 C07        -47.6030   -30.5260     4.8790 c5         1 S50       0.085300
     10 C08        -47.6490   -29.2670     5.7790 c5         1 S50      -0.086900
     11 C09        -48.6820   -29.5890     6.8860 c5         1 S50      -0.079400
     12 C21        -46.3550   -36.5900    -0.9320 cc         1 S50      -0.145100
     13 C22        -45.9660   -36.2850     0.3460 cd         1 S50      -0.226200
     14 C23        -45.5540   -34.9140     0.3340 ca         1 S50      -0.119800
     15 C24        -45.0420   -34.0150     1.2660 ca         1 S50      -0.017000
     16 N05        -47.4720   -30.2220     3.4550 na         1 S50       0.199800
     17 N06        -48.4400   -29.5400     2.8200 nd         1 S50      -0.493800
     18 N15        -44.2190   -31.7400     1.6980 nu         1 S50      -0.897100
     19 N18        -45.4350   -33.2270    -1.4410 nb         1 S50      -0.664000
     20 N20        -46.2070   -35.4870    -1.7450 na         1 S50      -0.332400
     21 O13        -45.2810   -32.4360     3.8510 o          1 S50      -0.537500
     22 O14        -44.0480   -30.2840     3.6720 o          1 S50      -0.537500
     23 S12        -44.9330   -31.2620     3.0910 sy         1 S50       1.219600
     24 H171       -44.7410   -31.3750    -0.8530 h4         1 S50       0.017100
     25 H111       -48.7690   -32.3770     4.9450 hc         1 S50       0.064200
     26 H101       -49.9870   -31.3520     7.1080 hc         1 S50       0.048950
     27 H102       -48.2640   -31.6900     7.2640 hc         1 S50       0.048950
     28 H013       -49.8100   -28.3390     1.0120 hc         1 S50       0.049367
     29 H012       -48.3540   -27.7040     0.2310 hc         1 S50       0.049367
     30 H011       -49.0380   -29.2350    -0.3070 hc         1 S50       0.049367
     31 H031       -46.1330   -29.8970     0.5020 ha         1 S50       0.141000
     32 H071       -46.7340   -31.1230     5.1340 h1         1 S50       0.076700
     33 H081       -46.6590   -29.0600     6.1850 hc         1 S50       0.064200
     34 H082       -47.9520   -28.4000     5.1930 hc         1 S50       0.064200
     35 H091       -48.3090   -29.3490     7.8820 hc         1 S50       0.048950
     36 H092       -49.5890   -29.0030     6.7280 hc         1 S50       0.048950
     37 H211       -46.7300   -37.5150    -1.3380 h4         1 S50       0.219000
     38 H221       -45.9740   -36.9560     1.1880 ha         1 S50       0.214000
     39 H241       -44.8600   -34.2990     2.2920 ha         1 S50       0.156000
     40 H151       -43.7290   -30.9770     1.2450 hn         1 S50       0.500000
     41 H201       -46.4190   -35.4500    -2.7290 hn         1 S50       0.364000
     42 H112       -49.7180   -30.9040     4.6920 hc         1 S50       0.064200
     43 C01        -48.8520   -28.6140     0.5720 c3         1 S50      -0.119400
@<TRIPOS>BOND
     1     1     2 ar  
     2     1    15 ar  
     3     1    18 1   
     4     2    19 ar  
     5     2    24 1   
     6     3     4 1   
     7     3     9 1   
     8     3    25 1   
     9     3    42 1   
    10     4    11 1   
    11     4    26 1   
    12     4    27 1   
    13     5    14 ar  
    14     5    19 ar  
    15     5    20 1   
    16     6     7 1   
    17     6    17 2   
    18     6    43 1   
    19     7     8 2   
    20     7    31 1   
    21     8    16 1   
    22     8    23 1   
    23     9    10 1   
    24     9    16 1   
    25     9    32 1   
    26    10    11 1   
    27    10    33 1   
    28    10    34 1   
    29    11    35 1   
    30    11    36 1   
    31    12    13 2   
    32    12    20 1   
    33    12    37 1   
    34    13    14 1   
    35    13    38 1   
    36    14    15 ar  
    37    15    39 1   
    38    16    17 1   
    39    18    23 1   
    40    18    40 1   
    41    20    41 1   
    42    21    23 2   
    43    22    23 2   
    44    28    43 1   
    45    29    43 1   
    46    30    43 1   
@<TRIPOS>SUBSTRUCTURE
     1 S50         1 TEMP              0 ****  ****    0 ROOT
