@<TRIPOS>MOLECULE
S50
   43    46     1     0     0
SMALL
No Charge or Current Charge


@<TRIPOS>ATOM
      1 C16        -44.9500   -32.3250     1.3690 ca         1 S50       0.173000
      2 C17        -45.7550   -32.4840     0.1970 ca         1 S50       0.336900
      3 C11        -48.6440   -31.9620     3.2570 c5         1 S50      -0.086900
      4 C10        -48.7000   -32.8360     4.5370 c5         1 S50      -0.079400
      5 C19        -46.6860   -34.4420     0.9670 ca         1 S50       0.362500
      6 C02        -47.5960   -28.4510     1.1870 cc         1 S50       0.247300
      7 C03        -46.2020   -28.5170     1.2670 cc         1 S50      -0.140000
      8 C04        -45.9000   -29.4850     2.1820 cd         1 S50      -0.348500
      9 C07        -47.4460   -31.0310     3.5870 c5         1 S50       0.085300
     10 C08        -47.9070   -30.5290     4.9800 c5         1 S50      -0.086900
     11 C09        -48.3670   -31.8380     5.6930 c5         1 S50      -0.079400
     12 C21        -47.2330   -36.2820     2.2630 cc         1 S50      -0.145100
     13 C22        -46.2820   -35.5180     2.9150 cd         1 S50      -0.226200
     14 C23        -45.9360   -34.3690     2.1190 ca         1 S50      -0.119800
     15 C24        -45.0410   -33.3220     2.3610 ca         1 S50      -0.017000
     16 N05        -47.1500   -29.9680     2.6050 na         1 S50       0.199800
     17 N06        -48.2060   -29.3050     1.9790 nd         1 S50      -0.493800
     18 N15        -44.1000   -31.2170     1.5450 nu         1 S50      -0.897100
     19 N18        -46.6140   -33.5220    -0.0100 nb         1 S50      -0.664000
     20 N20        -47.4600   -35.5840     1.0550 na         1 S50      -0.332400
     21 O13        -44.2990   -30.7060     3.9850 o          1 S50      -0.537500
     22 O14        -43.2600   -29.0270     2.3230 o          1 S50      -0.537500
     23 S12        -44.2780   -30.0090     2.6980 sy         1 S50       1.219600
     24 H171       -45.7160   -31.7390    -0.5960 h4         1 S50       0.017100
     25 H111       -48.4760   -32.5570     2.3530 hc         1 S50       0.064200
     26 H101       -49.6780   -33.3140     4.6670 hc         1 S50       0.048950
     27 H102       -47.9570   -33.6410     4.4930 hc         1 S50       0.048950
     28 H013       -49.4000   -27.5950     0.3710 hc         1 S50       0.049367
     29 H012       -48.0490   -26.4570     0.5280 hc         1 S50       0.049367
     30 H011       -48.0400   -27.6720    -0.7650 hc         1 S50       0.049367
     31 H031       -45.5110   -27.8980     0.7020 ha         1 S50       0.141000
     32 H071       -46.5530   -31.6520     3.7080 h1         1 S50       0.076700
     33 H081       -47.1020   -30.0210     5.5240 hc         1 S50       0.064200
     34 H082       -48.7350   -29.8150     4.8910 hc         1 S50       0.064200
     35 H091       -47.5760   -32.2420     6.3360 hc         1 S50       0.048950
     36 H092       -49.2350   -31.6550     6.3370 hc         1 S50       0.048950
     37 H211       -47.7370   -37.2080     2.5380 h4         1 S50       0.219000
     38 H221       -45.8630   -35.7570     3.8920 ha         1 S50       0.214000
     39 H241       -44.4510   -33.2770     3.2720 ha         1 S50       0.156000
     40 H151       -43.9210   -30.6700     0.7110 hn         1 S50       0.500000
     41 H201       -48.1040   -35.8670     0.3260 hn         1 S50       0.364000
     42 H112       -49.5780   -31.4050     3.1110 hc         1 S50       0.064200
     43 C01        -48.3120   -27.4920     0.2810 c3         1 S50      -0.119400
@<TRIPOS>BOND
     1     1     2 ar  
     2     1    15 ar  
     3     1    18 1   
     4     2    19 ar  
     5     2    24 1   
     6     3     4 1   
     7     3     9 1   
     8     3    25 1   
     9     3    42 1   
    10     4    11 1   
    11     4    26 1   
    12     4    27 1   
    13     5    14 ar  
    14     5    19 ar  
    15     5    20 1   
    16     6     7 1   
    17     6    17 2   
    18     6    43 1   
    19     7     8 2   
    20     7    31 1   
    21     8    16 1   
    22     8    23 1   
    23     9    10 1   
    24     9    16 1   
    25     9    32 1   
    26    10    11 1   
    27    10    33 1   
    28    10    34 1   
    29    11    35 1   
    30    11    36 1   
    31    12    13 2   
    32    12    20 1   
    33    12    37 1   
    34    13    14 1   
    35    13    38 1   
    36    14    15 ar  
    37    15    39 1   
    38    16    17 1   
    39    18    23 1   
    40    18    40 1   
    41    20    41 1   
    42    21    23 2   
    43    22    23 2   
    44    28    43 1   
    45    29    43 1   
    46    30    43 1   
@<TRIPOS>SUBSTRUCTURE
     1 S50         1 TEMP              0 ****  ****    0 ROOT
