@<TRIPOS>MOLECULE
S51
   55    59     1     0     0
SMALL
bcc


@<TRIPOS>ATOM
      1 C1          -4.9870    -0.8930    -1.2030 ca         1 S51      -0.122000
      2 C2          -4.6630    -0.7150     0.1360 ca         1 S51      -0.123000
      3 C3          -3.3360    -0.6970     0.5350 ca         1 S51      -0.118000
      4 C4          -2.3320    -0.8730    -0.4090 ca         1 S51      -0.001200
      5 C5          -2.6490    -1.0690    -1.7460 ca         1 S51      -0.118000
      6 C6          -3.9790    -1.0690    -2.1420 ca         1 S51      -0.123000
      7 N12         -0.9770    -0.8390     0.0000 na         1 S51       0.004500
      8 C13         -0.3590    -1.8020     0.7590 ca         1 S51      -0.036200
      9 C14          0.9730    -1.3930     0.9680 ca         1 S51      -0.073800
     10 C15          1.1240    -0.1400     0.2960 cc         1 S51      -0.209400
     11 C16         -0.0760     0.1670    -0.2770 cd         1 S51      -0.003300
     12 C17         -0.8530    -3.0030     1.2630 ca         1 S51      -0.138000
     13 C18          0.0180    -3.7900     1.9940 ca         1 S51      -0.113000
     14 C19          1.3470    -3.3980     2.2160 ca         1 S51      -0.153000
     15 C20          1.8330    -2.2090     1.7080 ca         1 S51      -0.081000
     16 C26         -1.4340     2.2580    -0.2530 ca         1 S51      -0.090300
     17 C29         -1.0390     2.8410     0.9490 ca         1 S51      -0.115500
     18 C30         -1.9220     3.6280     1.6740 ca         1 S51      -0.131000
     19 C31         -3.2140     3.8380     1.2080 ca         1 S51      -0.127000
     20 C32         -3.6160     3.2550     0.0150 ca         1 S51      -0.131000
     21 C33         -2.7290     2.4690    -0.7100 ca         1 S51      -0.115500
     22 C39          2.3340     0.7250     0.3540 c          1 S51       0.715300
     23 N40          3.2270     0.5930    -0.6440 n          1 S51      -0.472800
     24 O41          2.4870     1.5020     1.2910 o          1 S51      -0.600100
     25 C42          4.4850     1.3220    -0.6360 c6         1 S51       0.058500
     26 C43          5.6500     0.3360    -0.5790 c6         1 S51       0.129300
     27 N44          5.6080    -0.6740    -1.6210 n7         1 S51      -0.790200
     28 C45          4.3180    -1.3400    -1.6590 c6         1 S51       0.129300
     29 C46          3.1350    -0.3770    -1.7230 c6         1 S51       0.058500
     30 C60         -0.4680     1.3940    -1.0300 c3         1 S51       0.023100
     31 H1          -6.0240    -0.8990    -1.5130 ha         1 S51       0.135000
     32 H2          -5.4450    -0.5760     0.8700 ha         1 S51       0.137500
     33 H3          -3.0760    -0.5290     1.5730 ha         1 S51       0.147000
     34 H5          -1.8610    -1.2200    -2.4730 ha         1 S51       0.147000
     35 H6          -4.2270    -1.2160    -3.1850 ha         1 S51       0.137500
     36 H17         -1.8760    -3.3110     1.0940 ha         1 S51       0.139000
     37 H18         -0.3330    -4.7290     2.4020 ha         1 S51       0.129000
     38 H19          1.9980    -4.0390     2.7960 ha         1 S51       0.131000
     39 H20          2.8610    -1.9160     1.8850 ha         1 S51       0.138000
     40 H29         -0.0340     2.6750     1.3210 ha         1 S51       0.140500
     41 H30         -1.6010     4.0780     2.6050 ha         1 S51       0.131000
     42 H31         -3.9030     4.4530     1.7730 ha         1 S51       0.129000
     43 H32         -4.6230     3.4060    -0.3520 ha         1 S51       0.131000
     44 H33         -3.0530     2.0020    -1.6330 ha         1 S51       0.140500
     45 H42          4.5470     1.9220    -1.5510 h1         1 S51       0.059200
     46 H42A         4.5110     2.0040     0.2100 h1         1 S51       0.059200
     47 H43          6.5920     0.8830    -0.6440 h1         1 S51       0.061950
     48 H43A         5.6370    -0.1670     0.3940 h1         1 S51       0.061950
     49 HN44         5.7840    -0.2370    -2.5180 hn         1 S51       0.347800
     50 H45          4.2840    -2.0100    -2.5190 h1         1 S51       0.061950
     51 H45A         4.2200    -1.9610    -0.7620 h1         1 S51       0.061950
     52 H46          2.1960    -0.9220    -1.6600 h1         1 S51       0.059200
     53 H46A         3.1430     0.1600    -2.6770 h1         1 S51       0.059200
     54 H60          0.4410     1.9570    -1.2560 hc         1 S51       0.063700
     55 H60A        -0.9030     1.1310    -1.9960 hc         1 S51       0.063700
@<TRIPOS>BOND
     1     1     2 ar  
     2     1     6 ar  
     3     1    31 1   
     4     2     3 ar  
     5     2    32 1   
     6     3     4 ar  
     7     3    33 1   
     8     4     5 ar  
     9     4     7 1   
    10     5     6 ar  
    11     5    34 1   
    12     6    35 1   
    13     7     8 1   
    14     7    11 1   
    15     8     9 ar  
    16     8    12 ar  
    17     9    10 1   
    18     9    15 ar  
    19    10    11 2   
    20    10    22 1   
    21    11    30 1   
    22    12    13 ar  
    23    12    36 1   
    24    13    14 ar  
    25    13    37 1   
    26    14    15 ar  
    27    14    38 1   
    28    15    39 1   
    29    16    17 ar  
    30    16    21 ar  
    31    16    30 1   
    32    17    18 ar  
    33    17    40 1   
    34    18    19 ar  
    35    18    41 1   
    36    19    20 ar  
    37    19    42 1   
    38    20    21 ar  
    39    20    43 1   
    40    21    44 1   
    41    22    23 1   
    42    22    24 2   
    43    23    25 1   
    44    23    29 1   
    45    25    26 1   
    46    25    45 1   
    47    25    46 1   
    48    26    27 1   
    49    26    47 1   
    50    26    48 1   
    51    27    28 1   
    52    27    49 1   
    53    28    29 1   
    54    28    50 1   
    55    28    51 1   
    56    29    52 1   
    57    29    53 1   
    58    30    54 1   
    59    30    55 1   
@<TRIPOS>SUBSTRUCTURE
     1 S51         1 TEMP              0 ****  ****    0 ROOT
