@<TRIPOS>MOLECULE
S51
   55    59     1     0     0
SMALL
No Charge or Current Charge


@<TRIPOS>ATOM
      1 C1          -4.8630    -0.3500    -0.9090 ca         1 S51      -0.104000
      2 C2          -4.3230    -0.1740     0.3760 ca         1 S51      -0.105000
      3 C3          -2.9880    -0.5320     0.6330 ca         1 S51      -0.100000
      4 C4          -2.1840    -1.0610    -0.3980 ca         1 S51      -0.001200
      5 C5          -2.7340    -1.2460    -1.6810 ca         1 S51      -0.100000
      6 C6          -4.0690    -0.8880    -1.9370 ca         1 S51      -0.105000
      7 N12         -0.8580    -1.4190    -0.1500 na         1 S51       0.004500
      8 C13         -0.4440    -2.2140     0.9010 ca         1 S51      -0.036200
      9 C14          0.7950    -1.8250     1.3230 ca         1 S51      -0.073800
     10 C15          1.2080    -0.7080     0.5040 cc         1 S51      -0.209400
     11 C16          0.1140    -0.3930    -0.3240 cd         1 S51      -0.003300
     12 C17         -1.1250    -3.2880     1.4960 ca         1 S51      -0.120000
     13 C18         -0.4930    -3.9700     2.5560 ca         1 S51      -0.095000
     14 C19          0.7930    -3.5730     2.9900 ca         1 S51      -0.135000
     15 C20          1.4530    -2.4910     2.3710 ca         1 S51      -0.063000
     16 C26         -1.1200     1.8420    -0.5080 ca         1 S51      -0.090300
     17 C29         -0.8850     2.3110     0.8000 ca         1 S51      -0.097500
     18 C30         -1.7880     3.2010     1.4070 ca         1 S51      -0.113000
     19 C31         -2.9300     3.6300     0.7100 ca         1 S51      -0.109000
     20 C32         -3.1660     3.1700    -0.5970 ca         1 S51      -0.113000
     21 C33         -2.2630     2.2810    -1.2050 ca         1 S51      -0.097500
     22 C39          2.4840     0.0500     0.6630 c          1 S51       0.648300
     23 N40          3.0400     0.6440    -0.4960 n          1 S51      -0.405800
     24 O41          3.0680     0.1230     1.7370 o          1 S51      -0.600100
     25 C42          4.1750     1.6070    -0.4040 c6         1 S51       0.058500
     26 C43          5.5180     0.9630    -0.8480 c6         1 S51       0.129300
     27 N44          5.4160     0.3620    -2.2060 n7         1 S51      -0.845400
     28 C45          4.2960    -0.6160    -2.2900 c6         1 S51       0.129300
     29 C46          2.9420     0.0100    -1.8480 c6         1 S51       0.058500
     30 C60         -0.1460     0.8610    -1.1540 c3         1 S51       0.023100
     31 H1          -5.8950    -0.0710    -1.1080 ha         1 S51       0.117000
     32 H2          -4.9360     0.2440     1.1720 ha         1 S51       0.119500
     33 H3          -2.5720    -0.3860     1.6280 ha         1 S51       0.129000
     34 H5          -2.1240    -1.6630    -2.4790 ha         1 S51       0.129000
     35 H6          -4.4880    -1.0280    -2.9310 ha         1 S51       0.119500
     36 H17         -2.1110    -3.5870     1.1480 ha         1 S51       0.121000
     37 H18         -0.9950    -4.8060     3.0380 ha         1 S51       0.111000
     38 H19          1.2770    -4.1060     3.8050 ha         1 S51       0.113000
     39 H20          2.4440    -2.1900     2.7000 ha         1 S51       0.120000
     40 H29         -0.0060     1.9810     1.3490 ha         1 S51       0.122500
     41 H30         -1.6040     3.5560     2.4180 ha         1 S51       0.113000
     42 H31         -3.6300     4.3160     1.1810 ha         1 S51       0.111000
     43 H32         -4.0510     3.5000    -1.1370 ha         1 S51       0.113000
     44 H33         -2.4610     1.9260    -2.2140 ha         1 S51       0.122500
     45 H42          3.9570     2.4690    -1.0510 h1         1 S51       0.059200
     46 H42A         4.2740     1.9950     0.6190 h1         1 S51       0.059200
     47 H43          6.3130     1.7240    -0.8340 h1         1 S51       0.061950
     48 H43A         5.7970     0.1850    -0.1210 h1         1 S51       0.061950
     49 HN44         5.2340     1.1180    -2.8790 hn         1 S51       0.403000
     50 H45          4.2070    -0.9960    -3.3190 h1         1 S51       0.061950
     51 H45A         4.5160    -1.4780    -1.6410 h1         1 S51       0.061950
     52 H46          2.1790    -0.7780    -1.8660 h1         1 S51       0.059200
     53 H46A         2.6440     0.7730    -2.5810 h1         1 S51       0.059200
     54 H60          0.7730     1.4170    -1.3440 hc         1 S51       0.063700
     55 H60A        -0.5050     0.5650    -2.1470 hc         1 S51       0.063700
@<TRIPOS>BOND
     1     1     2 ar  
     2     1     6 ar  
     3     1    31 1   
     4     2     3 ar  
     5     2    32 1   
     6     3     4 ar  
     7     3    33 1   
     8     4     5 ar  
     9     4     7 1   
    10     5     6 ar  
    11     5    34 1   
    12     6    35 1   
    13     7     8 1   
    14     7    11 1   
    15     8     9 ar  
    16     8    12 ar  
    17     9    10 1   
    18     9    15 ar  
    19    10    11 2   
    20    10    22 1   
    21    11    30 1   
    22    12    13 ar  
    23    12    36 1   
    24    13    14 ar  
    25    13    37 1   
    26    14    15 ar  
    27    14    38 1   
    28    15    39 1   
    29    16    17 ar  
    30    16    21 ar  
    31    16    30 1   
    32    17    18 ar  
    33    17    40 1   
    34    18    19 ar  
    35    18    41 1   
    36    19    20 ar  
    37    19    42 1   
    38    20    21 ar  
    39    20    43 1   
    40    21    44 1   
    41    22    23 1   
    42    22    24 2   
    43    23    25 1   
    44    23    29 1   
    45    25    26 1   
    46    25    45 1   
    47    25    46 1   
    48    26    27 1   
    49    26    47 1   
    50    26    48 1   
    51    27    28 1   
    52    27    49 1   
    53    28    29 1   
    54    28    50 1   
    55    28    51 1   
    56    29    52 1   
    57    29    53 1   
    58    30    54 1   
    59    30    55 1   
@<TRIPOS>SUBSTRUCTURE
     1 S51         1 TEMP              0 ****  ****    0 ROOT
