@<TRIPOS>MOLECULE
S52
   53    57     1     0     0
SMALL
abcg2


@<TRIPOS>ATOM
      1 C1           4.9830     0.4740    -1.4520 ca         1 S52      -0.099000
      2 O1           0.2050     1.4720    -0.5370 os         1 S52      -0.224200
      3 C2           3.9540     0.3590    -2.3780 ca         1 S52      -0.106000
      4 C3           2.6870    -0.0290    -1.9670 ca         1 S52      -0.093000
      5 C4           2.4580    -0.2870    -0.6230 ca         1 S52      -0.012200
      6 C5           3.4810    -0.1750     0.3090 ca         1 S52      -0.093000
      7 C6           4.7470     0.2010    -0.1120 ca         1 S52      -0.106000
      8 N12          1.1560    -0.6450    -0.1900 na         1 S52      -0.025500
      9 C13          0.7410    -1.8930     0.2230 ca         1 S52      -0.035200
     10 C14         -0.6390    -1.8190     0.4970 ca         1 S52      -0.065800
     11 C15         -1.0480    -0.4640     0.2490 cc         1 S52      -0.223400
     12 C16          0.0790     0.1970    -0.1510 cd         1 S52       0.187000
     13 C17          1.4700    -3.0660     0.3660 ca         1 S52      -0.114000
     14 C18          0.7900    -4.1860     0.8090 ca         1 S52      -0.099000
     15 C19         -0.5800    -4.1340     1.1030 ca         1 S52      -0.131000
     16 C20         -1.2990    -2.9630     0.9530 ca         1 S52      -0.073000
     17 C26          1.0410     2.2760     0.2190 ca         1 S52       0.105100
     18 C29          1.8980     3.1220    -0.4640 ca         1 S52      -0.122000
     19 C30          2.7460     3.9480     0.2580 ca         1 S52      -0.095500
     20 C31          2.7400     3.9200     1.6470 ca         1 S52      -0.122000
     21 C32          1.8690     3.0690     2.3130 ca         1 S52      -0.095500
     22 C33          1.0070     2.2430     1.6040 ca         1 S52      -0.122000
     23 C39         -2.3380     0.1940     0.5450 c          1 S52       0.655300
     24 N40         -3.4590    -0.4370     0.1290 n          1 S52      -0.401800
     25 O41         -2.3630     1.2380     1.1870 o          1 S52      -0.600100
     26 C42         -4.7710     0.0770     0.4930 c6         1 S52       0.056500
     27 C43         -5.4450     0.7220    -0.7140 c6         1 S52       0.124800
     28 N44         -5.5080    -0.1570    -1.8690 n7         1 S52      -0.846400
     29 C45         -4.2050    -0.7180    -2.1790 c6         1 S52       0.124800
     30 C46         -3.5100    -1.3730    -0.9850 c6         1 S52       0.056500
     31 H1           5.9700     0.7760    -1.7770 ha         1 S52       0.117000
     32 H2           4.1380     0.5670    -3.4240 ha         1 S52       0.120000
     33 H3           1.8820    -0.1240    -2.6830 ha         1 S52       0.131000
     34 H5           3.2820    -0.3680     1.3550 ha         1 S52       0.131000
     35 H6           5.5450     0.2910     0.6120 ha         1 S52       0.120000
     36 H17          2.5290    -3.1070     0.1450 ha         1 S52       0.123000
     37 H18          1.3260    -5.1180     0.9330 ha         1 S52       0.113000
     38 H19         -1.0800    -5.0270     1.4540 ha         1 S52       0.113000
     39 H20         -2.3560    -2.9350     1.1860 ha         1 S52       0.122000
     40 H29          1.9130     3.1210    -1.5460 ha         1 S52       0.136000
     41 H30          3.4220     4.6070    -0.2700 ha         1 S52       0.115500
     42 H31          3.4090     4.5600     2.2080 ha         1 S52       0.115000
     43 H32          1.8510     3.0480     3.3950 ha         1 S52       0.115500
     44 H33          0.3140     1.5950     2.1240 ha         1 S52       0.136000
     45 H42         -5.3760    -0.7630     0.8480 h1         1 S52       0.059950
     46 H42A        -4.6740     0.7850     1.3130 h1         1 S52       0.059950
     47 H43         -6.4550     1.0350    -0.4460 h1         1 S52       0.061700
     48 H43A        -4.8910     1.6250    -0.9920 h1         1 S52       0.061700
     49 HN44        -6.1600    -0.9100    -1.6790 hn         1 S52       0.402000
     50 H45         -4.3110    -1.4520    -2.9790 h1         1 S52       0.061700
     51 H45A        -3.5630     0.0830    -2.5580 h1         1 S52       0.061700
     52 H46         -2.5080    -1.6830    -1.2700 h1         1 S52       0.059950
     53 H46A        -4.0560    -2.2690    -0.6740 h1         1 S52       0.059950
@<TRIPOS>BOND
     1     1     3 ar  
     2     1     7 ar  
     3     1    31 1   
     4     2    12 1   
     5     2    17 1   
     6     3     4 ar  
     7     3    32 1   
     8     4     5 ar  
     9     4    33 1   
    10     5     6 ar  
    11     5     8 1   
    12     6     7 ar  
    13     6    34 1   
    14     7    35 1   
    15     8     9 1   
    16     8    12 1   
    17     9    10 ar  
    18     9    13 ar  
    19    10    11 1   
    20    10    16 ar  
    21    11    12 2   
    22    11    23 1   
    23    13    14 ar  
    24    13    36 1   
    25    14    15 ar  
    26    14    37 1   
    27    15    16 ar  
    28    15    38 1   
    29    16    39 1   
    30    17    18 ar  
    31    17    22 ar  
    32    18    19 ar  
    33    18    40 1   
    34    19    20 ar  
    35    19    41 1   
    36    20    21 ar  
    37    20    42 1   
    38    21    22 ar  
    39    21    43 1   
    40    22    44 1   
    41    23    24 1   
    42    23    25 2   
    43    24    26 1   
    44    24    30 1   
    45    26    27 1   
    46    26    45 1   
    47    26    46 1   
    48    27    28 1   
    49    27    47 1   
    50    27    48 1   
    51    28    29 1   
    52    28    49 1   
    53    29    30 1   
    54    29    50 1   
    55    29    51 1   
    56    30    52 1   
    57    30    53 1   
@<TRIPOS>SUBSTRUCTURE
     1 S52         1 TEMP              0 ****  ****    0 ROOT
