@<TRIPOS>MOLECULE
S52
   53    57     1     0     0
SMALL
No Charge or Current Charge


@<TRIPOS>ATOM
      1 C1           5.2850     0.3180    -0.4590 ca         1 S52      -0.099000
      2 O1           0.5790     1.4080    -1.0220 os         1 S52      -0.224200
      3 C2           4.6690     0.4160    -1.7190 ca         1 S52      -0.106000
      4 C3           3.3350     0.0030    -1.8840 ca         1 S52      -0.093000
      5 C4           2.6100    -0.5080    -0.7900 ca         1 S52      -0.012200
      6 C5           3.2340    -0.6080     0.4710 ca         1 S52      -0.093000
      7 C6           4.5670    -0.1950     0.6350 ca         1 S52      -0.106000
      8 N12          1.2800    -0.8970    -0.9610 na         1 S52      -0.025500
      9 C13          0.7260    -2.0560    -0.4400 ca         1 S52      -0.035200
     10 C14         -0.5400    -1.8170     0.0530 ca         1 S52      -0.065800
     11 C15         -0.8350    -0.4090    -0.1550 cc         1 S52      -0.223400
     12 C16          0.3550     0.1150    -0.6350 cd         1 S52       0.187000
     13 C17          1.3260    -3.3210    -0.3450 ca         1 S52      -0.114000
     14 C18          0.6110    -4.3530     0.2950 ca         1 S52      -0.099000
     15 C19         -0.6640    -4.0980     0.8480 ca         1 S52      -0.131000
     16 C20         -1.2440    -2.8160     0.7470 ca         1 S52      -0.073000
     17 C26          1.1410     2.3440    -0.1800 ca         1 S52       0.105100
     18 C29          1.5850     3.5570    -0.7330 ca         1 S52      -0.122000
     19 C30          2.1790     4.5340     0.0850 ca         1 S52      -0.095500
     20 C31          2.3300     4.2980     1.4620 ca         1 S52      -0.122000
     21 C32          1.8850     3.0880     2.0220 ca         1 S52      -0.095500
     22 C33          1.2900     2.1100     1.2050 ca         1 S52      -0.122000
     23 C39         -2.0620     0.3830     0.1310 c          1 S52       0.655300
     24 N40         -3.2910    -0.3180     0.1740 n          1 S52      -0.401800
     25 O41         -2.0340     1.5930     0.3140 o          1 S52      -0.600100
     26 C42         -4.5150     0.3050     0.7570 c6         1 S52       0.056500
     27 C43         -5.5250     0.7450    -0.3390 c6         1 S52       0.124800
     28 N44         -5.8660    -0.3800    -1.2500 n7         1 S52      -0.846400
     29 C45         -4.6470    -0.9820    -1.8550 c6         1 S52       0.124800
     30 C46         -3.6160    -1.4260    -0.7770 c6         1 S52       0.056500
     31 H1           6.3160     0.6390    -0.3320 ha         1 S52       0.117000
     32 H2           5.2240     0.8130    -2.5660 ha         1 S52       0.120000
     33 H3           2.8610     0.0870    -2.8600 ha         1 S52       0.131000
     34 H5           2.6840    -0.9990     1.3240 ha         1 S52       0.131000
     35 H6           5.0430    -0.2700     1.6100 ha         1 S52       0.120000
     36 H17          2.3230    -3.4970    -0.7430 ha         1 S52       0.123000
     37 H18          1.0530    -5.3430     0.3850 ha         1 S52       0.113000
     38 H19         -1.1950    -4.8910     1.3690 ha         1 S52       0.113000
     39 H20         -2.2020    -2.6130     1.2180 ha         1 S52       0.122000
     40 H29          1.4710     3.7370    -1.7990 ha         1 S52       0.136000
     41 H30          2.5230     5.4710    -0.3480 ha         1 S52       0.115500
     42 H31          2.7900     5.0530     2.0960 ha         1 S52       0.115000
     43 H32          2.0020     2.9070     3.0880 ha         1 S52       0.115500
     44 H33          0.9490     1.1820     1.6540 ha         1 S52       0.136000
     45 H42         -4.9990    -0.4260     1.4200 h1         1 S52       0.059950
     46 H42A        -4.2510     1.1700     1.3800 h1         1 S52       0.059950
     47 H43         -6.4380     1.1330     0.1370 h1         1 S52       0.061700
     48 H43A        -5.0830     1.5690    -0.9210 h1         1 S52       0.061700
     49 HN44        -6.3440    -1.1060    -0.7000 hn         1 S52       0.402000
     50 H45         -4.9250    -1.8480    -2.4750 h1         1 S52       0.061700
     51 H45A        -4.1690    -0.2450    -2.5190 h1         1 S52       0.061700
     52 H46         -2.7180    -1.7780    -1.3000 h1         1 S52       0.059950
     53 H46A        -4.0270    -2.2760    -0.2140 h1         1 S52       0.059950
@<TRIPOS>BOND
     1     1     3 ar  
     2     1     7 ar  
     3     1    31 1   
     4     2    12 1   
     5     2    17 1   
     6     3     4 ar  
     7     3    32 1   
     8     4     5 ar  
     9     4    33 1   
    10     5     6 ar  
    11     5     8 1   
    12     6     7 ar  
    13     6    34 1   
    14     7    35 1   
    15     8     9 1   
    16     8    12 1   
    17     9    10 ar  
    18     9    13 ar  
    19    10    11 1   
    20    10    16 ar  
    21    11    12 2   
    22    11    23 1   
    23    13    14 ar  
    24    13    36 1   
    25    14    15 ar  
    26    14    37 1   
    27    15    16 ar  
    28    15    38 1   
    29    16    39 1   
    30    17    18 ar  
    31    17    22 ar  
    32    18    19 ar  
    33    18    40 1   
    34    19    20 ar  
    35    19    41 1   
    36    20    21 ar  
    37    20    42 1   
    38    21    22 ar  
    39    21    43 1   
    40    22    44 1   
    41    23    24 1   
    42    23    25 2   
    43    24    26 1   
    44    24    30 1   
    45    26    27 1   
    46    26    45 1   
    47    26    46 1   
    48    27    28 1   
    49    27    47 1   
    50    27    48 1   
    51    28    29 1   
    52    28    49 1   
    53    29    30 1   
    54    29    50 1   
    55    29    51 1   
    56    30    52 1   
    57    30    53 1   
@<TRIPOS>SUBSTRUCTURE
     1 S52         1 TEMP              0 ****  ****    0 ROOT
