@<TRIPOS>MOLECULE
S53
   68    73     1     0     0
SMALL
abcg2


@<TRIPOS>ATOM
      1 N1          -3.0880     1.1850     2.5650 nb         1 S53      -0.672000
      2 C2          -2.6470     0.3530     1.6340 ca         1 S53       0.368300
      3 C3          -1.3450     0.5070     1.1450 ca         1 S53      -0.081200
      4 C4          -0.5410     1.5780     1.5900 ca         1 S53      -0.031800
      5 C5          -1.0490     2.4430     2.5560 ca         1 S53      -0.108000
      6 C6          -2.3220     2.1840     3.0120 ca         1 S53       0.315900
      7 N9          -0.6050    -0.1980     0.2090 na         1 S53      -0.009500
      8 C10          0.6060     0.4270     0.0750 cc         1 S53       0.161000
      9 C11          0.6960     1.5270     0.8780 cd         1 S53      -0.210400
     10 C12         -0.8940    -1.4420    -0.4130 ca         1 S53      -0.016200
     11 C13         -0.8870    -2.6040     0.3470 ca         1 S53      -0.095500
     12 C14         -1.1480    -3.8200    -0.2640 ca         1 S53      -0.105000
     13 C15         -1.3930    -3.8740    -1.6310 ca         1 S53      -0.096000
     14 C16         -1.3810    -2.7100    -2.3860 ca         1 S53      -0.105000
     15 C17         -1.1330    -1.4860    -1.7780 ca         1 S53      -0.095500
     16 C23         -3.6530    -0.6590     1.1440 c3         1 S53      -0.078400
     17 C24         -4.6450    -0.0150     0.2050 ca         1 S53      -0.078300
     18 C27         -4.4840    -0.1110    -1.1740 ca         1 S53      -0.098500
     19 C28         -5.3810     0.5000    -2.0410 ca         1 S53      -0.114000
     20 C29         -6.4580     1.2170    -1.5360 ca         1 S53      -0.109000
     21 C30         -6.6300     1.3150    -0.1610 ca         1 S53      -0.114000
     22 C31         -5.7290     0.7060     0.7020 ca         1 S53      -0.098500
     23 O37          1.5180    -0.0570    -0.7730 os         1 S53      -0.231200
     24 C38          2.1680    -1.2300    -0.4540 ca         1 S53       0.138100
     25 C39          2.3600    -1.6040     0.8660 ca         1 S53      -0.200000
     26 C40          3.0260    -2.7900     1.1070 ca         1 S53       0.194000
     27 C41          3.5060    -3.5870     0.0890 ca         1 S53      -0.166000
     28 C42          3.3050    -3.1650    -1.2180 ca         1 S53      -0.065000
     29 C43          2.6340    -1.9870    -1.5260 ca         1 S53      -0.097300
     30 C47          2.4080    -1.5530    -2.9430 c3         1 S53      -0.035800
     31 F51          3.2090    -3.1680     2.3810 f          1 S53      -0.172000
     32 C52          1.8730     2.3770     1.1650 c          1 S53       0.652300
     33 N53          2.5700     2.8890     0.1320 n          1 S53      -0.398800
     34 O54          2.1790     2.5720     2.3370 o          1 S53      -0.602100
     35 C55          3.7840     3.6510     0.3850 c6         1 S53       0.061500
     36 C56          4.8450     3.2970    -0.6530 c6         1 S53       0.136300
     37 N57          4.3940     3.4300    -2.0270 n7         1 S53      -0.844400
     38 C58          3.1540     2.7040    -2.2380 c6         1 S53       0.136300
     39 C59          2.0700     3.0540    -1.2260 c6         1 S53       0.061500
     40 H5          -0.4760     3.2740     2.9420 ha         1 S53       0.142000
     41 H6          -2.7640     2.8120     3.7780 h4         1 S53       0.021100
     42 H13         -0.6820    -2.5540     1.4090 ha         1 S53       0.132000
     43 H14         -1.1490    -4.7260     0.3270 ha         1 S53       0.122500
     44 H15         -1.5910    -4.8250    -2.1070 ha         1 S53       0.120000
     45 H16         -1.5690    -2.7480    -3.4510 ha         1 S53       0.122500
     46 H17         -1.1330    -0.5750    -2.3630 ha         1 S53       0.132000
     47 H23         -3.1780    -1.5040     0.6520 hc         1 S53       0.064200
     48 H23A        -4.1770    -1.0540     2.0160 hc         1 S53       0.064200
     49 H27         -3.6500    -0.6730    -1.5760 ha         1 S53       0.116000
     50 H28         -5.2390     0.4120    -3.1100 ha         1 S53       0.110000
     51 H29         -7.1610     1.6910    -2.2080 ha         1 S53       0.110000
     52 H30         -7.4700     1.8660     0.2430 ha         1 S53       0.110000
     53 H31         -5.8710     0.7880     1.7730 ha         1 S53       0.116000
     54 H39          2.0020    -1.0020     1.6920 ha         1 S53       0.156000
     55 H41          4.0230    -4.5110     0.3060 ha         1 S53       0.137000
     56 H42          3.6760    -3.7800    -2.0280 ha         1 S53       0.121000
     57 H47          2.8400    -0.5720    -3.1450 hc         1 S53       0.046033
     58 H47A         2.8590    -2.2620    -3.6350 hc         1 S53       0.046033
     59 H47B         1.3440    -1.4910    -3.1760 hc         1 S53       0.046033
     60 H55          3.5580     4.7230     0.3370 h1         1 S53       0.054950
     61 H55A         4.1500     3.4360     1.3860 h1         1 S53       0.054950
     62 H56          5.7180     3.9320    -0.4980 h1         1 S53       0.061700
     63 H56A         5.1660     2.2630    -0.4920 h1         1 S53       0.061700
     64 HN57         4.2440     4.4120    -2.2340 hn         1 S53       0.403000
     65 H58          2.7840     2.9080    -3.2440 h1         1 S53       0.061700
     66 H58A         3.3670     1.6320    -2.1800 h1         1 S53       0.061700
     67 H59          1.1800     2.4530    -1.3910 h1         1 S53       0.054950
     68 H59A         1.7760     4.1020    -1.3620 h1         1 S53       0.054950
@<TRIPOS>BOND
     1     1     2 ar  
     2     1     6 ar  
     3     2     3 ar  
     4     2    16 1   
     5     3     4 ar  
     6     3     7 1   
     7     4     5 ar  
     8     4     9 1   
     9     5     6 ar  
    10     5    40 1   
    11     6    41 1   
    12     7     8 1   
    13     7    10 1   
    14     8     9 2   
    15     8    23 1   
    16     9    32 1   
    17    10    11 ar  
    18    10    15 ar  
    19    11    12 ar  
    20    11    42 1   
    21    12    13 ar  
    22    12    43 1   
    23    13    14 ar  
    24    13    44 1   
    25    14    15 ar  
    26    14    45 1   
    27    15    46 1   
    28    16    17 1   
    29    16    47 1   
    30    16    48 1   
    31    17    18 ar  
    32    17    22 ar  
    33    18    19 ar  
    34    18    49 1   
    35    19    20 ar  
    36    19    50 1   
    37    20    21 ar  
    38    20    51 1   
    39    21    22 ar  
    40    21    52 1   
    41    22    53 1   
    42    23    24 1   
    43    24    25 ar  
    44    24    29 ar  
    45    25    26 ar  
    46    25    54 1   
    47    26    27 ar  
    48    26    31 1   
    49    27    28 ar  
    50    27    55 1   
    51    28    29 ar  
    52    28    56 1   
    53    29    30 1   
    54    30    57 1   
    55    30    58 1   
    56    30    59 1   
    57    32    33 1   
    58    32    34 2   
    59    33    35 1   
    60    33    39 1   
    61    35    36 1   
    62    35    60 1   
    63    35    61 1   
    64    36    37 1   
    65    36    62 1   
    66    36    63 1   
    67    37    38 1   
    68    37    64 1   
    69    38    39 1   
    70    38    65 1   
    71    38    66 1   
    72    39    67 1   
    73    39    68 1   
@<TRIPOS>SUBSTRUCTURE
     1 S53         1 TEMP              0 ****  ****    0 ROOT
