@<TRIPOS>MOLECULE
S53
   68    73     1     0     0
SMALL
No Charge or Current Charge


@<TRIPOS>ATOM
      1 N1          -2.9530     0.8200     3.3000 nb         1 S53      -0.672000
      2 C2          -2.6460     0.2160     2.1190 ca         1 S53       0.368300
      3 C3          -1.4300     0.5160     1.4560 ca         1 S53      -0.081200
      4 C4          -0.5730     1.4610     1.9790 ca         1 S53      -0.031800
      5 C5          -0.8780     2.0960     3.1890 ca         1 S53      -0.108000
      6 C6          -2.0820     1.7280     3.8190 ca         1 S53       0.315900
      7 N9          -0.8840     0.0680     0.2550 na         1 S53      -0.009500
      8 C10          0.3120     0.7520    -0.0150 cc         1 S53       0.161000
      9 C11          0.5370     1.6200     1.0490 cd         1 S53      -0.210400
     10 C12         -1.1820    -1.1300    -0.3940 ca         1 S53      -0.016200
     11 C13         -1.0330    -2.3620     0.2740 ca         1 S53      -0.095500
     12 C14         -1.2830    -3.5670    -0.4050 ca         1 S53      -0.105000
     13 C15         -1.6740    -3.5470    -1.7550 ca         1 S53      -0.096000
     14 C16         -1.8100    -2.3210    -2.4270 ca         1 S53      -0.105000
     15 C17         -1.5610    -1.1150    -1.7490 ca         1 S53      -0.095500
     16 C23         -3.7100    -0.7380     1.5750 c3         1 S53      -0.078400
     17 C24         -4.2520    -0.3570     0.1980 ca         1 S53      -0.078300
     18 C27         -4.6340    -1.3690    -0.7050 ca         1 S53      -0.098500
     19 C28         -5.1260    -1.0380    -1.9790 ca         1 S53      -0.114000
     20 C29         -5.2470     0.3090    -2.3580 ca         1 S53      -0.109000
     21 C30         -4.8820     1.3250    -1.4590 ca         1 S53      -0.114000
     22 C31         -4.3900     0.9940    -0.1840 ca         1 S53      -0.098500
     23 O37          1.3070     0.3820    -0.8900 os         1 S53      -0.231200
     24 C38          1.8590    -0.8470    -0.5580 ca         1 S53       0.138100
     25 C39          2.0550    -1.2610     0.7810 ca         1 S53      -0.200000
     26 C40          2.6120    -2.5170     1.0520 ca         1 S53       0.194000
     27 C41          2.9930    -3.3670     0.0070 ca         1 S53      -0.166000
     28 C42          2.8240    -2.9560    -1.3250 ca         1 S53      -0.065000
     29 C43          2.2650    -1.6950    -1.6140 ca         1 S53      -0.097300
     30 C47          2.0790    -1.2650    -3.0650 c3         1 S53      -0.035800
     31 F51          2.7850    -2.9100     2.3320 f          1 S53      -0.172000
     32 C52          1.7670     2.4310     1.3040 c          1 S53       0.652300
     33 N53          2.5900     2.7430     0.1990 n          1 S53      -0.398800
     34 O54          2.0670     2.8100     2.4290 o          1 S53      -0.602100
     35 C55          3.9800     3.2350     0.4420 c6         1 S53       0.061500
     36 C56          4.8940     3.1780    -0.8150 c6         1 S53       0.136300
     37 N57          4.2650     3.8210    -1.9960 n7         1 S53      -0.844400
     38 C58          2.9420     3.2130    -2.2870 c6         1 S53       0.136300
     39 C59          1.9910     3.2920    -1.0610 c6         1 S53       0.061500
     40 H5          -0.2300     2.8460     3.6300 ha         1 S53       0.142000
     41 H6          -2.3720     2.1880     4.7630 h4         1 S53       0.021100
     42 H13         -0.7170    -2.3860     1.3140 ha         1 S53       0.132000
     43 H14         -1.1690    -4.5170     0.1140 ha         1 S53       0.122500
     44 H15         -1.8660    -4.4800    -2.2800 ha         1 S53       0.120000
     45 H16         -2.1090    -2.3040    -3.4730 ha         1 S53       0.122500
     46 H17         -1.6650    -0.1690    -2.2750 ha         1 S53       0.132000
     47 H23         -3.3010    -1.7530     1.5560 hc         1 S53       0.064200
     48 H23A        -4.5540    -0.7910     2.2730 hc         1 S53       0.064200
     49 H27         -4.5370    -2.4150    -0.4250 ha         1 S53       0.116000
     50 H28         -5.4090    -1.8260    -2.6730 ha         1 S53       0.110000
     51 H29         -5.6260     0.5660    -3.3450 ha         1 S53       0.110000
     52 H30         -4.9800     2.3680    -1.7490 ha         1 S53       0.110000
     53 H31         -4.1180     1.7930     0.5010 ha         1 S53       0.116000
     54 H39          1.7860    -0.6270     1.6190 ha         1 S53       0.156000
     55 H41          3.4240    -4.3400     0.2290 ha         1 S53       0.137000
     56 H42          3.1280    -3.6200    -2.1330 ha         1 S53       0.121000
     57 H47          2.6360    -0.3440    -3.2750 hc         1 S53       0.046033
     58 H47A         2.4300    -2.0300    -3.7670 hc         1 S53       0.046033
     59 H47B         1.0220    -1.0760    -3.2860 hc         1 S53       0.046033
     60 H55          3.9270     4.2730     0.8000 h1         1 S53       0.054950
     61 H55A         4.4440     2.6390     1.2400 h1         1 S53       0.054950
     62 H56          5.8550     3.6650    -0.5910 h1         1 S53       0.061700
     63 H56A         5.1090     2.1240    -1.0480 h1         1 S53       0.061700
     64 HN57         4.1240     4.8170    -1.7860 hn         1 S53       0.403000
     65 H58          2.4770     3.7210    -3.1450 h1         1 S53       0.061700
     66 H58A         3.0770     2.1560    -2.5650 h1         1 S53       0.061700
     67 H59          1.0440     2.8020    -1.3110 h1         1 S53       0.054950
     68 H59A         1.7450     4.3490    -0.8840 h1         1 S53       0.054950
@<TRIPOS>BOND
     1     1     2 ar  
     2     1     6 ar  
     3     2     3 ar  
     4     2    16 1   
     5     3     4 ar  
     6     3     7 1   
     7     4     5 ar  
     8     4     9 1   
     9     5     6 ar  
    10     5    40 1   
    11     6    41 1   
    12     7     8 1   
    13     7    10 1   
    14     8     9 2   
    15     8    23 1   
    16     9    32 1   
    17    10    11 ar  
    18    10    15 ar  
    19    11    12 ar  
    20    11    42 1   
    21    12    13 ar  
    22    12    43 1   
    23    13    14 ar  
    24    13    44 1   
    25    14    15 ar  
    26    14    45 1   
    27    15    46 1   
    28    16    17 1   
    29    16    47 1   
    30    16    48 1   
    31    17    18 ar  
    32    17    22 ar  
    33    18    19 ar  
    34    18    49 1   
    35    19    20 ar  
    36    19    50 1   
    37    20    21 ar  
    38    20    51 1   
    39    21    22 ar  
    40    21    52 1   
    41    22    53 1   
    42    23    24 1   
    43    24    25 ar  
    44    24    29 ar  
    45    25    26 ar  
    46    25    54 1   
    47    26    27 ar  
    48    26    31 1   
    49    27    28 ar  
    50    27    55 1   
    51    28    29 ar  
    52    28    56 1   
    53    29    30 1   
    54    30    57 1   
    55    30    58 1   
    56    30    59 1   
    57    32    33 1   
    58    32    34 2   
    59    33    35 1   
    60    33    39 1   
    61    35    36 1   
    62    35    60 1   
    63    35    61 1   
    64    36    37 1   
    65    36    62 1   
    66    36    63 1   
    67    37    38 1   
    68    37    64 1   
    69    38    39 1   
    70    38    65 1   
    71    38    66 1   
    72    39    67 1   
    73    39    68 1   
@<TRIPOS>SUBSTRUCTURE
     1 S53         1 TEMP              0 ****  ****    0 ROOT
