@<TRIPOS>MOLECULE
S54
   68    70     1     0     0
SMALL
No Charge or Current Charge


@<TRIPOS>ATOM
      1 C7          -4.7280    -0.4980     0.1640 c3         1 S54      -0.247100
      2 S8          -3.9340     0.3010    -1.2430 s6         1 S54       1.166100
      3 C4          -5.0990    -1.9570    -0.0730 ca         1 S54      -0.082300
      4 C5          -6.3740    -2.2950    -0.5650 ca         1 S54      -0.085500
      5 C6          -6.7150    -3.6410    -0.7820 ca         1 S54      -0.108500
      6 C1          -5.7840    -4.6570    -0.5070 ca         1 S54      -0.100000
      7 C2          -4.5110    -4.3250    -0.0140 ca         1 S54      -0.108500
      8 C3          -4.1690    -2.9780     0.2040 ca         1 S54      -0.085500
      9 O22         -2.5950    -0.2490    -1.4560 o          1 S54      -0.524000
     10 O23         -4.8920     0.3870    -2.3460 o          1 S54      -0.524000
     11 N9          -3.7360     1.8640    -0.7050 n7         1 S54      -0.876300
     12 C10         -2.7120     2.1670     0.3460 c3         1 S54       0.147500
     13 C18         -3.1200     3.4570     1.1260 c3         1 S54      -0.049700
     14 C19         -3.2140     4.7200     0.2330 c3         1 S54      -0.087600
     15 C20         -4.4190     3.2510     1.9440 c3         1 S54      -0.087600
     16 C11         -1.2460     2.2750    -0.2220 c          1 S54       0.592100
     17 O17         -1.0500     2.5640    -1.4000 o          1 S54      -0.607100
     18 N12         -0.1470     2.0730     0.6450 n          1 S54      -0.384800
     19 C13          1.2610     2.2440     0.1910 c5         1 S54       0.023700
     20 C24          1.8010     1.0710    -0.6900 c          1 S54       0.590100
     21 O33          1.2950    -0.0320    -0.8570 o          1 S54      -0.565100
     22 C14          2.0070     2.2630     1.5600 c5         1 S54      -0.085400
     23 C15          1.2080     1.2210     2.3810 c5         1 S54      -0.093400
     24 C16         -0.2580     1.5960     2.0440 c5         1 S54       0.109000
     25 N25          2.9720     1.4660    -1.3020 ns         1 S54      -0.503900
     26 C26          3.7920     0.6030    -2.1520 c3         1 S54       0.151300
     27 C27          4.8680    -0.1020    -1.3390 ca         1 S54      -0.100300
     28 C32          4.6010    -1.3400    -0.7290 ca         1 S54      -0.102000
     29 C31          5.5900    -1.9900     0.0290 ca         1 S54      -0.082500
     30 C30          6.8680    -1.4060     0.2060 ca         1 S54      -0.141900
     31 C34          7.9470    -2.1030     0.9840 ce         1 S54       0.658800
     32 N35          9.1780    -1.8140     0.8830 n2         1 S54      -0.828100
     33 N36          7.5780    -3.0120     1.9130 nv         1 S54      -1.074200
     34 C29          7.1310    -0.1700    -0.4300 ca         1 S54      -0.082500
     35 C28          6.1390     0.4780    -1.1860 ca         1 S54      -0.102000
     36 H7          -5.6200     0.0990     0.3820 h1         1 S54       0.097700
     37 H7A         -4.0330    -0.4140     1.0050 h1         1 S54       0.097700
     38 H5          -7.1000    -1.5150    -0.7820 ha         1 S54       0.118500
     39 H6          -7.7010    -3.8970    -1.1640 ha         1 S54       0.115000
     40 H1          -6.0480    -5.6990    -0.6750 ha         1 S54       0.113000
     41 H2          -3.7890    -5.1100     0.2000 ha         1 S54       0.115000
     42 H3          -3.1810    -2.7300     0.5850 ha         1 S54       0.118500
     43 HN9         -3.4370     2.3150    -1.5700 hn         1 S54       0.506000
     44 H10         -2.7020     1.3540     1.0820 h1         1 S54       0.075700
     45 H18         -2.3290     3.6560     1.8580 hc         1 S54       0.047700
     46 H19         -4.0120     4.6210    -0.5130 hc         1 S54       0.039367
     47 H19A        -3.4330     5.6050     0.8430 hc         1 S54       0.039367
     48 H19B        -2.2700     4.9050    -0.2930 hc         1 S54       0.039367
     49 H20         -4.3250     2.3850     2.6100 hc         1 S54       0.039367
     50 H20A        -4.6290     4.1310     2.5630 hc         1 S54       0.039367
     51 H20B        -5.2790     3.0850     1.2840 hc         1 S54       0.039367
     52 H13          1.3980     3.1860    -0.3560 h1         1 S54       0.078700
     53 H14          3.0720     2.0140     1.4790 hc         1 S54       0.058700
     54 H14A         1.9440     3.2550     2.0240 hc         1 S54       0.058700
     55 H15          1.4380     0.1980     2.0590 hc         1 S54       0.065700
     56 H15A         1.4150     1.2760     3.4560 hc         1 S54       0.065700
     57 H16         -0.6200     2.3970     2.7010 h1         1 S54       0.048700
     58 H16A        -0.9230     0.7280     2.1460 h1         1 S54       0.048700
     59 HN25         3.3090     2.3990    -1.1000 hn         1 S54       0.310500
     60 H26          3.1550    -0.1370    -2.6540 h1         1 S54       0.063700
     61 H26A         4.2600     1.2190    -2.9310 h1         1 S54       0.063700
     62 H32          3.6230    -1.8040    -0.8440 ha         1 S54       0.118000
     63 H31          5.3550    -2.9580     0.4680 ha         1 S54       0.127000
     64 HN35         9.7160    -2.5500     1.3530 hn         1 S54       0.369400
     65 HN36         6.5980    -2.9830     2.1700 hn         1 S54       0.460000
     66 HN3A         8.2200    -3.1480     2.6860 hn         1 S54       0.460000
     67 H29          8.1080     0.2990    -0.3320 ha         1 S54       0.127000
     68 H28          6.3630     1.4340    -1.6550 ha         1 S54       0.118000
@<TRIPOS>BOND
     1     1     2 1   
     2     1     3 1   
     3     1    36 1   
     4     1    37 1   
     5     2     9 2   
     6     2    10 2   
     7     2    11 1   
     8     3     4 ar  
     9     3     8 ar  
    10     4     5 ar  
    11     4    38 1   
    12     5     6 ar  
    13     5    39 1   
    14     6     7 ar  
    15     6    40 1   
    16     7     8 ar  
    17     7    41 1   
    18     8    42 1   
    19    11    12 1   
    20    11    43 1   
    21    12    13 1   
    22    12    16 1   
    23    12    44 1   
    24    13    14 1   
    25    13    15 1   
    26    13    45 1   
    27    14    46 1   
    28    14    47 1   
    29    14    48 1   
    30    15    49 1   
    31    15    50 1   
    32    15    51 1   
    33    16    17 2   
    34    16    18 1   
    35    18    19 1   
    36    18    24 1   
    37    19    20 1   
    38    19    22 1   
    39    19    52 1   
    40    20    21 2   
    41    20    25 1   
    42    22    23 1   
    43    22    53 1   
    44    22    54 1   
    45    23    24 1   
    46    23    55 1   
    47    23    56 1   
    48    24    57 1   
    49    24    58 1   
    50    25    26 1   
    51    25    59 1   
    52    26    27 1   
    53    26    60 1   
    54    26    61 1   
    55    27    28 ar  
    56    27    35 ar  
    57    28    29 ar  
    58    28    62 1   
    59    29    30 ar  
    60    29    63 1   
    61    30    31 1   
    62    30    34 ar  
    63    31    32 2   
    64    31    33 1   
    65    32    64 1   
    66    33    65 1   
    67    33    66 1   
    68    34    35 ar  
    69    34    67 1   
    70    35    68 1   
@<TRIPOS>SUBSTRUCTURE
     1 S54         1 TEMP              0 ****  ****    0 ROOT
