@<TRIPOS>MOLECULE
S54
   68    70     1     0     0
SMALL
bcc


@<TRIPOS>ATOM
      1 C7          -4.7690    -0.5300     0.1230 c3         1 S54      -0.136300
      2 S8          -3.4570     0.1210    -0.9190 s6         1 S54       1.196900
      3 C4          -4.8940    -2.0060    -0.0830 ca         1 S54      -0.082300
      4 C5          -5.6630    -2.5070    -1.1300 ca         1 S54      -0.103500
      5 C6          -5.7620    -3.8760    -1.3350 ca         1 S54      -0.126500
      6 C1          -5.0890    -4.7560    -0.4970 ca         1 S54      -0.118000
      7 C2          -4.3180    -4.2620     0.5470 ca         1 S54      -0.126500
      8 C3          -4.2170    -2.8930     0.7490 ca         1 S54      -0.103500
      9 O22         -2.2230    -0.5660    -0.5660 o          1 S54      -0.594800
     10 O23         -3.9120     0.1020    -2.3030 o          1 S54      -0.594800
     11 N9          -3.3980     1.7070    -0.4490 n7         1 S54      -0.821100
     12 C10         -2.4120     2.0950     0.5420 c3         1 S54       0.147500
     13 C18         -2.8640     3.3760     1.2720 c3         1 S54      -0.049700
     14 C19         -3.0090     4.5760     0.3430 c3         1 S54      -0.087600
     15 C20         -4.1550     3.1160     2.0410 c3         1 S54      -0.087600
     16 C11         -1.0400     2.2780    -0.1090 c          1 S54       0.659100
     17 O17         -0.9440     2.5050    -1.3080 o          1 S54      -0.607100
     18 N12          0.0300     2.2520     0.6970 n          1 S54      -0.451800
     19 C13          1.3480     2.4870     0.1460 c5         1 S54       0.023700
     20 C24          1.7750     1.3350    -0.7580 c          1 S54       0.657100
     21 O33          1.3580     0.2010    -0.6060 o          1 S54      -0.565100
     22 C14          2.2430     2.5400     1.3910 c5         1 S54      -0.085400
     23 C15          1.5510     1.5880     2.3600 c5         1 S54      -0.093400
     24 C16          0.0700     1.8370     2.0980 c5         1 S54       0.109000
     25 N25          2.6960     1.6640    -1.6800 ns         1 S54      -0.570900
     26 C26          3.4250     0.6580    -2.4210 c3         1 S54       0.151300
     27 C27          4.3850    -0.1050    -1.5420 ca         1 S54      -0.100300
     28 C32          4.1950    -1.4510    -1.2630 ca         1 S54      -0.120000
     29 C31          5.0610    -2.1330    -0.4190 ca         1 S54      -0.100500
     30 C30          6.1400    -1.4770     0.1670 ca         1 S54      -0.141900
     31 C34          7.0850    -2.1760     1.0810 ce         1 S54       0.658800
     32 N35          8.2850    -1.7470     1.1680 n2         1 S54      -0.828100
     33 N36          6.5730    -3.2700     1.7220 nv         1 S54      -0.963800
     34 C29          6.3410    -0.1280    -0.1250 ca         1 S54      -0.100500
     35 C28          5.4720     0.5470    -0.9630 ca         1 S54      -0.120000
     36 H7          -5.6730     0.0130    -0.1510 h1         1 S54       0.097700
     37 H7A         -4.5140    -0.2790     1.1540 h1         1 S54       0.097700
     38 H5          -6.1980    -1.8260    -1.7800 ha         1 S54       0.136500
     39 H6          -6.3650    -4.2560    -2.1490 ha         1 S54       0.133000
     40 H1          -5.1690    -5.8240    -0.6550 ha         1 S54       0.131000
     41 H2          -3.7950    -4.9430     1.2060 ha         1 S54       0.133000
     42 H3          -3.6190    -2.5130     1.5680 ha         1 S54       0.136500
     43 HN9         -3.4310     2.3170    -1.2600 hn         1 S54       0.450800
     44 H10         -2.3580     1.3040     1.2950 h1         1 S54       0.075700
     45 H18         -2.0820     3.6040     2.0010 hc         1 S54       0.047700
     46 H19         -3.7890     4.4170    -0.4050 hc         1 S54       0.039367
     47 H19A        -3.2960     5.4560     0.9190 hc         1 S54       0.039367
     48 H19B        -2.0830     4.8200    -0.1770 hc         1 S54       0.039367
     49 H20         -4.0590     2.2520     2.7010 hc         1 S54       0.039367
     50 H20A        -4.4080     3.9780     2.6600 hc         1 S54       0.039367
     51 H20B        -4.9900     2.9330     1.3640 hc         1 S54       0.039367
     52 H13          1.3730     3.4290    -0.4060 h1         1 S54       0.078700
     53 H14          3.2760     2.2670     1.1780 hc         1 S54       0.058700
     54 H14A         2.2450     3.5570     1.7870 hc         1 S54       0.058700
     55 H15          1.8070     0.5530     2.1280 hc         1 S54       0.065700
     56 H15A         1.8150     1.7750     3.3990 hc         1 S54       0.065700
     57 H16         -0.3130     2.6280     2.7480 h1         1 S54       0.048700
     58 H16A        -0.5320     0.9430     2.2680 h1         1 S54       0.048700
     59 HN25         3.0200     2.6160    -1.7320 hn         1 S54       0.310500
     60 H26          2.7270    -0.0260    -2.9050 h1         1 S54       0.063700
     61 H26A         3.9680     1.1730    -3.2140 h1         1 S54       0.063700
     62 H32          3.3610    -1.9800    -1.7080 ha         1 S54       0.136000
     63 H31          4.8890    -3.1850    -0.2330 ha         1 S54       0.145000
     64 HN35         8.8180    -2.2820     1.8480 hn         1 S54       0.369400
     65 HN36         5.5860    -3.2890     1.9160 hn         1 S54       0.404800
     66 HN3A         7.1340    -3.6750     2.4550 hn         1 S54       0.404800
     67 H29          7.1810     0.3920     0.3170 ha         1 S54       0.145000
     68 H28          5.6420     1.5980    -1.1690 ha         1 S54       0.136000
@<TRIPOS>BOND
     1     1     2 1   
     2     1     3 1   
     3     1    36 1   
     4     1    37 1   
     5     2     9 2   
     6     2    10 2   
     7     2    11 1   
     8     3     4 ar  
     9     3     8 ar  
    10     4     5 ar  
    11     4    38 1   
    12     5     6 ar  
    13     5    39 1   
    14     6     7 ar  
    15     6    40 1   
    16     7     8 ar  
    17     7    41 1   
    18     8    42 1   
    19    11    12 1   
    20    11    43 1   
    21    12    13 1   
    22    12    16 1   
    23    12    44 1   
    24    13    14 1   
    25    13    15 1   
    26    13    45 1   
    27    14    46 1   
    28    14    47 1   
    29    14    48 1   
    30    15    49 1   
    31    15    50 1   
    32    15    51 1   
    33    16    17 2   
    34    16    18 1   
    35    18    19 1   
    36    18    24 1   
    37    19    20 1   
    38    19    22 1   
    39    19    52 1   
    40    20    21 2   
    41    20    25 1   
    42    22    23 1   
    43    22    53 1   
    44    22    54 1   
    45    23    24 1   
    46    23    55 1   
    47    23    56 1   
    48    24    57 1   
    49    24    58 1   
    50    25    26 1   
    51    25    59 1   
    52    26    27 1   
    53    26    60 1   
    54    26    61 1   
    55    27    28 ar  
    56    27    35 ar  
    57    28    29 ar  
    58    28    62 1   
    59    29    30 ar  
    60    29    63 1   
    61    30    31 1   
    62    30    34 ar  
    63    31    32 2   
    64    31    33 1   
    65    32    64 1   
    66    33    65 1   
    67    33    66 1   
    68    34    35 ar  
    69    34    67 1   
    70    35    68 1   
@<TRIPOS>SUBSTRUCTURE
     1 S54         1 TEMP              0 ****  ****    0 ROOT
