@<TRIPOS>MOLECULE
S55
   74    78     1     0     0
SMALL
abcg2


@<TRIPOS>ATOM
      1 O24         -3.7530    -8.7550    -3.1580 o          1 S55      -0.490000
      2 C21         -2.9050    -8.9790    -2.3230 c          1 S55       0.615300
      3 O22         -2.3150   -10.1670    -2.2030 os         1 S55      -0.458100
      4 C23         -2.6840   -11.1800    -3.1350 c3         1 S55       0.156900
      5 C20         -2.4220    -7.9840    -1.3610 ce         1 S55      -0.316400
      6 C19         -1.3110    -8.2230    -0.6450 c2         1 S55       0.097100
      7 O18         -0.7360    -7.3610     0.1870 os         1 S55      -0.381100
      8 C17         -1.2930    -6.0520     0.3420 c6         1 S55       0.388300
      9 O27         -0.2280    -5.2080     0.6040 os         1 S55      -0.406000
     10 C28          0.2310    -5.1890     1.9130 c6         1 S55       0.360300
     11 O33         -0.6990    -4.4750     2.6800 os         1 S55      -0.490000
     12 C32         -0.3840    -4.4540     4.0600 c6         1 S55       0.108300
     13 C33         -1.5490    -3.7950     4.7760 c3         1 S55       0.170600
     14 O34         -2.7500    -4.5110     4.6170 oh         1 S55      -0.711000
     15 C31          0.9330    -3.7020     4.2480 c6         1 S55       0.096300
     16 O35          1.3190    -3.6220     5.6000 oh         1 S55      -0.705000
     17 C30          2.0310    -4.3490     3.3990 c6         1 S55       0.109300
     18 O36          3.2190    -3.6040     3.4290 oh         1 S55      -0.630000
     19 C29          1.5890    -4.4870     1.9440 c6         1 S55       0.157300
     20 O37          2.5380    -5.1410     1.1500 oh         1 S55      -0.671000
     21 C16         -2.0250    -5.5980    -0.9100 c6         1 S55      -0.083700
     22 C25         -2.5510    -4.1700    -0.7500 c3         1 S55      -0.063400
     23 C26         -3.3300    -3.6840    -1.9640 c3         1 S55      -0.097100
     24 C15         -3.1010    -6.6430    -1.2570 c6         1 S55       0.003500
     25 C14         -4.2650    -6.6580    -0.2520 c3         1 S55      -0.060400
     26 C13         -5.5450    -7.3190    -0.7820 c6         1 S55       0.241700
     27 N12         -6.0640    -6.5990    -1.9390 n7         1 S55      -0.855400
     28 C11         -6.9200    -5.4660    -1.6210 c6         1 S55       0.154800
     29 C10         -8.1750    -5.8280    -0.8210 c6         1 S55      -0.038200
     30 C7          -7.7790    -6.7430     0.2880 cc         1 S55      -0.136400
     31 C8          -6.5850    -7.4050     0.2930 cd         1 S55      -0.101300
     32 C5          -8.4580    -7.1080     1.4930 ca         1 S55      -0.087800
     33 C4          -7.6050    -7.9980     2.1880 ca         1 S55      -0.042200
     34 N9          -6.4740    -8.1530     1.4370 na         1 S55      -0.217700
     35 C6          -9.6930    -6.7710     2.0540 ca         1 S55      -0.061000
     36 C1         -10.0500    -7.3230     3.2720 ca         1 S55      -0.142000
     37 C2          -9.1920    -8.2080     3.9430 ca         1 S55      -0.092000
     38 C3          -7.9620    -8.5560     3.4130 ca         1 S55      -0.131000
     39 H231        -2.1010   -12.0570    -2.8670 h1         1 S55       0.047033
     40 H232        -2.4480   -10.8910    -4.1590 h1         1 S55       0.047033
     41 H233        -3.7450   -11.4210    -3.0670 h1         1 S55       0.047033
     42 H19         -0.7550    -9.1520    -0.6910 h4         1 S55       0.229000
     43 H15         -3.5130    -6.3880    -2.2350 hc         1 S55       0.108700
     44 H17         -1.9840    -6.0940     1.1940 h2         1 S55       0.059700
     45 H16         -1.3020    -5.5930    -1.7370 hc         1 S55       0.078700
     46 H28          0.3350    -6.2130     2.3160 h2         1 S55       0.032700
     47 H29          1.4600    -3.4860     1.5150 h1         1 S55       0.112700
     48 H32         -0.2710    -5.4870     4.4330 h1         1 S55       0.043700
     49 H331        -1.6440    -2.7560     4.4300 h1         1 S55       0.060700
     50 H332        -1.3350    -3.7630     5.8440 h1         1 S55       0.060700
     51 H31          0.7960    -2.6680     3.9120 h1         1 S55       0.106700
     52 H34         -2.9690    -4.5210     3.6800 ho         1 S55       0.513000
     53 H35          1.4100    -4.5150     5.9530 ho         1 S55       0.502000
     54 H30          2.1970    -5.3680     3.7980 h1         1 S55       0.017700
     55 H36          3.4880    -3.5140     4.3500 ho         1 S55       0.456000
     56 H37          2.7520    -5.9930     1.5470 ho         1 S55       0.499000
     57 H251        -1.7050    -3.5020    -0.5850 hc         1 S55       0.047200
     58 H252        -3.1740    -4.0890     0.1460 hc         1 S55       0.047200
     59 H261        -2.7150    -3.7190    -2.8650 hc         1 S55       0.039367
     60 H262        -4.2220    -4.2840    -2.1520 hc         1 S55       0.039367
     61 H263        -3.6540    -2.6520    -1.8260 hc         1 S55       0.039367
     62 H141        -4.5240    -5.6370     0.0400 hc         1 S55       0.042200
     63 H142        -3.9580    -7.1640     0.6680 hc         1 S55       0.042200
     64 H13         -5.3060    -8.3320    -1.1140 h1         1 S55       0.067700
     65 H12         -6.5660    -7.2440    -2.5350 hn         1 S55       0.425000
     66 H111        -7.1950    -4.9760    -2.5560 h1         1 S55       0.052700
     67 H112        -6.3340    -4.7390    -1.0510 h1         1 S55       0.052700
     68 H101        -8.9150    -6.3020    -1.4760 hc         1 S55       0.050200
     69 H102        -8.6450    -4.9180    -0.4380 hc         1 S55       0.050200
     70 H9          -5.7020    -8.7550     1.6680 hn         1 S55       0.348000
     71 H6         -10.3620    -6.0890     1.5440 ha         1 S55       0.113000
     72 H3          -7.3020    -9.2390     3.9340 ha         1 S55       0.111000
     73 H1         -11.0050    -7.0710     3.7160 ha         1 S55       0.110000
     74 H2          -9.4960    -8.6260     4.8940 ha         1 S55       0.109000
@<TRIPOS>BOND
     1     1     2 2   
     2     2     3 1   
     3     2     5 1   
     4     3     4 1   
     5     4    39 1   
     6     4    40 1   
     7     4    41 1   
     8     5     6 2   
     9     5    24 1   
    10     6     7 1   
    11     6    42 1   
    12     7     8 1   
    13     8     9 1   
    14     8    21 1   
    15     8    44 1   
    16     9    10 1   
    17    10    11 1   
    18    10    19 1   
    19    10    46 1   
    20    11    12 1   
    21    12    13 1   
    22    12    15 1   
    23    12    48 1   
    24    13    14 1   
    25    13    49 1   
    26    13    50 1   
    27    14    52 1   
    28    15    16 1   
    29    15    17 1   
    30    15    51 1   
    31    16    53 1   
    32    17    18 1   
    33    17    19 1   
    34    17    54 1   
    35    18    55 1   
    36    19    20 1   
    37    19    47 1   
    38    20    56 1   
    39    21    22 1   
    40    21    24 1   
    41    21    45 1   
    42    22    23 1   
    43    22    57 1   
    44    22    58 1   
    45    23    59 1   
    46    23    60 1   
    47    23    61 1   
    48    24    25 1   
    49    24    43 1   
    50    25    26 1   
    51    25    62 1   
    52    25    63 1   
    53    26    27 1   
    54    26    31 1   
    55    26    64 1   
    56    27    28 1   
    57    27    65 1   
    58    28    29 1   
    59    28    66 1   
    60    28    67 1   
    61    29    30 1   
    62    29    68 1   
    63    29    69 1   
    64    30    31 2   
    65    30    32 1   
    66    31    34 1   
    67    32    33 ar  
    68    32    35 ar  
    69    33    34 1   
    70    33    38 ar  
    71    34    70 1   
    72    35    36 ar  
    73    35    71 1   
    74    36    37 ar  
    75    36    73 1   
    76    37    38 ar  
    77    37    74 1   
    78    38    72 1   
@<TRIPOS>SUBSTRUCTURE
     1 S55         1 TEMP              0 ****  ****    0 ROOT
