@<TRIPOS>MOLECULE
S55
   74    78     1     0     0
SMALL
No Charge or Current Charge


@<TRIPOS>ATOM
      1 O24         -3.8510    -8.8640    -3.2060 o          1 S55      -0.490000
      2 C21         -2.9560    -9.0580    -2.3960 c          1 S55       0.615300
      3 O22         -2.2860   -10.2470    -2.2740 os         1 S55      -0.458100
      4 C23         -2.6740   -11.3350    -3.1330 c3         1 S55       0.156900
      5 C20         -2.4300    -8.0170    -1.4480 ce         1 S55      -0.316400
      6 C19         -1.3590    -8.2600    -0.6480 c2         1 S55       0.097100
      7 O18         -0.7570    -7.3050     0.1400 os         1 S55      -0.381100
      8 C17         -1.3110    -5.9730     0.2270 c6         1 S55       0.388300
      9 O27         -0.2430    -5.0640     0.5290 os         1 S55      -0.406000
     10 C28          0.2220    -5.1320     1.8840 c6         1 S55       0.360300
     11 O33         -0.7740    -4.5260     2.7380 os         1 S55      -0.490000
     12 C32         -0.4610    -4.6010     4.1540 c6         1 S55       0.108300
     13 C33         -1.6740    -3.9970     4.9230 c3         1 S55       0.170600
     14 O34         -2.9090    -4.4260     4.3300 oh         1 S55      -0.711000
     15 C31          0.8740    -3.8490     4.4500 c6         1 S55       0.096300
     16 O35          1.2490    -3.9460     5.8420 oh         1 S55      -0.705000
     17 C30          2.0070    -4.4140     3.5440 c6         1 S55       0.109300
     18 O36          3.2210    -3.6720     3.7450 oh         1 S55      -0.630000
     19 C29          1.5790    -4.3690     2.0480 c6         1 S55       0.157300
     20 O37          2.6410    -4.9060     1.2250 oh         1 S55      -0.671000
     21 C16         -2.0020    -5.5740    -1.1080 c6         1 S55      -0.083700
     22 C25         -2.4930    -4.0850    -1.1060 c3         1 S55      -0.063400
     23 C26         -3.2100    -3.6210    -2.3920 c3         1 S55      -0.097100
     24 C15         -3.1070    -6.6320    -1.4240 c6         1 S55       0.003500
     25 C14         -4.2810    -6.6360    -0.3790 c3         1 S55      -0.060400
     26 C13         -5.5880    -7.3730    -0.8040 c6         1 S55       0.241700
     27 N12         -6.2270    -6.7070    -1.9770 n7         1 S55      -0.855400
     28 C11         -6.9710    -5.4640    -1.6330 c6         1 S55       0.154800
     29 C10         -8.1540    -5.7450    -0.6670 c6         1 S55      -0.038200
     30 C7          -7.7360    -6.6970     0.4270 cc         1 S55      -0.136400
     31 C8          -6.5710    -7.4530     0.3530 cd         1 S55      -0.101300
     32 C5          -8.3800    -7.0750     1.6500 ca         1 S55      -0.087800
     33 C4          -7.5960    -8.0160     2.2570 ca         1 S55      -0.042200
     34 N9          -6.4700    -8.2820     1.4970 na         1 S55      -0.217700
     35 C6          -9.5840    -6.6310     2.2150 ca         1 S55      -0.061000
     36 C1          -9.9750    -7.1890     3.4510 ca         1 S55      -0.142000
     37 C2          -9.1660    -8.1630     4.0840 ca         1 S55      -0.092000
     38 C3          -7.9600    -8.5870     3.4840 ca         1 S55      -0.131000
     39 H231        -2.0610   -12.2220    -2.9280 h1         1 S55       0.047033
     40 H232        -2.5410   -11.0670    -4.1890 h1         1 S55       0.047033
     41 H233        -3.7260   -11.6050    -2.9730 h1         1 S55       0.047033
     42 H19         -0.8370    -9.2200    -0.6290 h4         1 S55       0.229000
     43 H15         -3.5380    -6.4080    -2.4110 hc         1 S55       0.108700
     44 H17         -2.0590    -5.9410     1.0330 h2         1 S55       0.059700
     45 H16         -1.2450    -5.6320    -1.9020 hc         1 S55       0.078700
     46 H28          0.3660    -6.1850     2.1720 h2         1 S55       0.032700
     47 H29          1.3900    -3.3180     1.7790 h1         1 S55       0.112700
     48 H32         -0.3640    -5.6610     4.4330 h1         1 S55       0.043700
     49 H331        -1.5990    -2.9010     4.8860 h1         1 S55       0.060700
     50 H332        -1.6180    -4.2970     5.9780 h1         1 S55       0.060700
     51 H31          0.7230    -2.7910     4.1800 h1         1 S55       0.106700
     52 H34         -2.6770    -4.5310     3.3750 ho         1 S55       0.513000
     53 H35          1.3310    -4.9030     6.0680 ho         1 S55       0.502000
     54 H30          2.1730    -5.4660     3.8200 h1         1 S55       0.017700
     55 H36          3.2400    -3.4500     4.7050 ho         1 S55       0.456000
     56 H37          3.4720    -4.5880     1.6500 ho         1 S55       0.499000
     57 H251        -1.6280    -3.4250    -0.9650 hc         1 S55       0.047200
     58 H252        -3.1460    -3.8900    -0.2470 hc         1 S55       0.047200
     59 H261        -2.5880    -3.8140    -3.2740 hc         1 S55       0.039367
     60 H262        -4.1680    -4.1390    -2.5200 hc         1 S55       0.039367
     61 H263        -3.4140    -2.5450    -2.3460 hc         1 S55       0.039367
     62 H141        -4.5460    -5.6130    -0.0980 hc         1 S55       0.042200
     63 H142        -3.9220    -7.0940     0.5500 hc         1 S55       0.042200
     64 H13         -5.3100    -8.3980    -1.0900 h1         1 S55       0.067700
     65 H12         -6.9050    -7.3690    -2.3690 hn         1 S55       0.425000
     66 H111        -7.3580    -4.9980    -2.5510 h1         1 S55       0.052700
     67 H112        -6.2880    -4.7370    -1.1690 h1         1 S55       0.052700
     68 H101        -8.9900    -6.1740    -1.2340 hc         1 S55       0.050200
     69 H102        -8.5190    -4.7980    -0.2480 hc         1 S55       0.050200
     70 H9          -5.7300    -8.9420     1.7120 hn         1 S55       0.348000
     71 H6         -10.1950    -5.8820     1.7180 ha         1 S55       0.113000
     72 H3          -7.3330    -9.3360     3.9630 ha         1 S55       0.111000
     73 H1         -10.9030    -6.8680     3.9190 ha         1 S55       0.110000
     74 H2          -9.4760    -8.5880     5.0360 ha         1 S55       0.109000
@<TRIPOS>BOND
     1     1     2 2   
     2     2     3 1   
     3     2     5 1   
     4     3     4 1   
     5     4    39 1   
     6     4    40 1   
     7     4    41 1   
     8     5     6 2   
     9     5    24 1   
    10     6     7 1   
    11     6    42 1   
    12     7     8 1   
    13     8     9 1   
    14     8    21 1   
    15     8    44 1   
    16     9    10 1   
    17    10    11 1   
    18    10    19 1   
    19    10    46 1   
    20    11    12 1   
    21    12    13 1   
    22    12    15 1   
    23    12    48 1   
    24    13    14 1   
    25    13    49 1   
    26    13    50 1   
    27    14    52 1   
    28    15    16 1   
    29    15    17 1   
    30    15    51 1   
    31    16    53 1   
    32    17    18 1   
    33    17    19 1   
    34    17    54 1   
    35    18    55 1   
    36    19    20 1   
    37    19    47 1   
    38    20    56 1   
    39    21    22 1   
    40    21    24 1   
    41    21    45 1   
    42    22    23 1   
    43    22    57 1   
    44    22    58 1   
    45    23    59 1   
    46    23    60 1   
    47    23    61 1   
    48    24    25 1   
    49    24    43 1   
    50    25    26 1   
    51    25    62 1   
    52    25    63 1   
    53    26    27 1   
    54    26    31 1   
    55    26    64 1   
    56    27    28 1   
    57    27    65 1   
    58    28    29 1   
    59    28    66 1   
    60    28    67 1   
    61    29    30 1   
    62    29    68 1   
    63    29    69 1   
    64    30    31 2   
    65    30    32 1   
    66    31    34 1   
    67    32    33 ar  
    68    32    35 ar  
    69    33    34 1   
    70    33    38 ar  
    71    34    70 1   
    72    35    36 ar  
    73    35    71 1   
    74    36    37 ar  
    75    36    73 1   
    76    37    38 ar  
    77    37    74 1   
    78    38    72 1   
@<TRIPOS>SUBSTRUCTURE
     1 S55         1 TEMP              0 ****  ****    0 ROOT
