@<TRIPOS>MOLECULE
S56
   67    70     1     0     0
SMALL
No Charge or Current Charge


@<TRIPOS>ATOM
      1 O1          -0.9760    -3.6250    -0.2740 o          1 S56      -0.586100
      2 C21          0.1920    -3.4580     0.0510 c          1 S56       0.608100
      3 N4           1.0870    -4.5070     0.1170 ns         1 S56      -0.498900
      4 C22          0.7590    -5.9040    -0.1650 c3         1 S56       0.111700
      5 C24          2.0080    -6.6480    -0.6740 c3         1 S56      -0.109100
      6 C23          0.1440    -6.5790     1.0760 c3         1 S56      -0.109100
      7 C19          0.7650    -2.0830     0.4030 c3         1 S56      -0.085600
      8 C20          0.1090    -1.5480     1.5990 c1         1 S56       0.301900
      9 N3          -0.3870    -1.1310     2.5670 n1         1 S56      -0.439000
     10 C18          0.6720    -1.1120    -0.8030 c3         1 S56      -0.001200
     11 C17          1.3650     0.2160    -0.5620 cc         1 S56      -0.073300
     12 N5           2.7630     0.4110    -0.5890 na         1 S56      -0.183400
     13 C25          3.8130    -0.5850    -0.8970 c3         1 S56       0.077600
     14 C26          4.6140    -1.0290     0.3440 c3         1 S56       0.136600
     15 O2           5.4850    -2.1020    -0.0510 os         1 S56      -0.457000
     16 C27          6.3010    -2.6290     1.0090 c3         1 S56       0.147900
     17 C2           3.1030     1.7240    -0.2870 ca         1 S56       0.154500
     18 N2           4.3020     2.3420    -0.2640 nb         1 S56      -0.238000
     19 C1           4.2830     3.6640     0.0220 ca         1 S56       0.184900
     20 N1           3.1880     4.4220     0.2590 nb         1 S56      -0.303000
     21 C4           0.8530     1.4450    -0.1510 cd         1 S56      -0.031400
     22 C3           1.9400     2.4070    -0.0210 ca         1 S56      -0.249800
     23 C            2.0080     3.7870     0.2320 ca         1 S56       0.437900
     24 N            0.9290     4.5880     0.3910 nv         1 S56      -1.065900
     25 C5          -0.5780     1.7860    -0.0260 ca         1 S56      -0.039800
     26 C16         -1.0480     2.4650     1.1160 ca         1 S56      -0.091500
     27 C15         -2.4130     2.7680     1.2600 ca         1 S56      -0.123000
     28 C8          -3.3270     2.3840     0.2680 ca         1 S56       0.104100
     29 C7          -2.8690     1.7150    -0.8820 ca         1 S56      -0.123000
     30 C6          -1.5040     1.4110    -1.0220 ca         1 S56      -0.091500
     31 O           -4.6580     2.6980     0.4270 os         1 S56      -0.258200
     32 C9          -5.6760     1.8470     0.0580 ca         1 S56       0.130100
     33 C14         -6.8540     2.3900    -0.4790 ca         1 S56      -0.155500
     34 C13         -7.9150     1.5450    -0.8520 ca         1 S56      -0.080000
     35 C12         -7.7980     0.1550    -0.6790 ca         1 S56      -0.141000
     36 C11         -6.6250    -0.3910    -0.1290 ca         1 S56      -0.080000
     37 C10         -5.5650     0.4540     0.2440 ca         1 S56      -0.155500
     38 H1           2.0370    -4.2850     0.3900 hn         1 S56       0.314500
     39 H2           0.0100    -5.9270    -0.9700 h1         1 S56       0.080700
     40 H3           2.7950    -6.6600     0.0890 hc         1 S56       0.044033
     41 H4           1.7610    -7.6850    -0.9300 hc         1 S56       0.044033
     42 H5           2.4050    -6.1620    -1.5730 hc         1 S56       0.044033
     43 H6           0.8520    -6.5760     1.9140 hc         1 S56       0.044033
     44 H7          -0.7650    -6.0540     1.3920 hc         1 S56       0.044033
     45 H8          -0.1240    -7.6190     0.8560 hc         1 S56       0.044033
     46 H9           1.8220    -2.2130     0.6550 hc         1 S56       0.079700
     47 H10          1.1060    -1.5930    -1.6880 hc         1 S56       0.081200
     48 H11         -0.3850    -0.9680    -1.0480 hc         1 S56       0.081200
     49 H12          3.3530    -1.4670    -1.3570 h1         1 S56       0.074200
     50 H13          4.5030    -0.1540    -1.6320 h1         1 S56       0.074200
     51 H14          5.1910    -0.1800     0.7340 h1         1 S56       0.036200
     52 H15          3.9220    -1.3630     1.1290 h1         1 S56       0.036200
     53 H16          5.6770    -3.0300     1.8190 h1         1 S56       0.031700
     54 H17          6.9370    -3.4400     0.6340 h1         1 S56       0.031700
     55 H18          6.9520    -1.8490     1.4250 h1         1 S56       0.031700
     56 H19          5.2450     4.1730     0.0440 h5         1 S56       0.044100
     57 H20          1.0630     5.5900     0.2920 hn         1 S56       0.499500
     58 H21          0.0230     4.2160     0.1270 hn         1 S56       0.499500
     59 H22         -0.3550     2.7320     1.9120 ha         1 S56       0.126000
     60 H23         -2.7650     3.2870     2.1480 ha         1 S56       0.132000
     61 H24         -3.5660     1.4370    -1.6690 ha         1 S56       0.132000
     62 H25         -1.1620     0.9190    -1.9290 ha         1 S56       0.126000
     63 H26         -6.9430     3.4650    -0.6110 ha         1 S56       0.127500
     64 H27         -8.8250     1.9660    -1.2740 ha         1 S56       0.114000
     65 H28         -8.6180    -0.5000    -0.9670 ha         1 S56       0.115000
     66 H29         -6.5380    -1.4670     0.0110 ha         1 S56       0.114000
     67 H30         -4.6640     0.0280     0.6790 ha         1 S56       0.127500
@<TRIPOS>BOND
     1     1     2 2   
     2     2     3 1   
     3     2     7 1   
     4     3     4 1   
     5     3    38 1   
     6     4     5 1   
     7     4     6 1   
     8     4    39 1   
     9     5    40 1   
    10     5    41 1   
    11     5    42 1   
    12     6    43 1   
    13     6    44 1   
    14     6    45 1   
    15     7     8 1   
    16     7    10 1   
    17     7    46 1   
    18     8     9 3   
    19    10    11 1   
    20    10    47 1   
    21    10    48 1   
    22    11    12 1   
    23    11    21 2   
    24    12    13 1   
    25    12    17 1   
    26    13    14 1   
    27    13    49 1   
    28    13    50 1   
    29    14    15 1   
    30    14    51 1   
    31    14    52 1   
    32    15    16 1   
    33    16    53 1   
    34    16    54 1   
    35    16    55 1   
    36    17    18 ar  
    37    17    22 ar  
    38    18    19 ar  
    39    19    20 ar  
    40    19    56 1   
    41    20    23 ar  
    42    21    22 1   
    43    21    25 1   
    44    22    23 ar  
    45    23    24 1   
    46    24    57 1   
    47    24    58 1   
    48    25    26 ar  
    49    25    30 ar  
    50    26    27 ar  
    51    26    59 1   
    52    27    28 ar  
    53    27    60 1   
    54    28    29 ar  
    55    28    31 1   
    56    29    30 ar  
    57    29    61 1   
    58    30    62 1   
    59    31    32 1   
    60    32    33 ar  
    61    32    37 ar  
    62    33    34 ar  
    63    33    63 1   
    64    34    35 ar  
    65    34    64 1   
    66    35    36 ar  
    67    35    65 1   
    68    36    37 ar  
    69    36    66 1   
    70    37    67 1   
@<TRIPOS>SUBSTRUCTURE
     1 S56         1 TEMP              0 ****  ****    0 ROOT
