@<TRIPOS>MOLECULE
S56
   67    70     1     0     0
SMALL
abcg2


@<TRIPOS>ATOM
      1 O1          -0.6940    -3.1470    -1.1510 o          1 S56      -0.586100
      2 C21          0.1880    -3.1940    -0.3140 c          1 S56       0.608100
      3 N4           0.5560    -4.2890     0.3530 ns         1 S56      -0.498900
      4 C22         -0.0410    -5.6040     0.1510 c3         1 S56       0.111700
      5 C24          0.7300    -6.3930    -0.8990 c3         1 S56      -0.109100
      6 C23         -0.1040    -6.3380     1.4810 c3         1 S56      -0.109100
      7 C19          0.9650    -1.9230     0.0910 c3         1 S56      -0.085600
      8 C20          0.3570    -1.3830     1.3010 c1         1 S56       0.301900
      9 N3          -0.1340    -0.9670     2.2540 n1         1 S56      -0.439000
     10 C18          0.9660    -0.8810    -1.0400 c3         1 S56      -0.001200
     11 C17          1.5990     0.4120    -0.6620 cc         1 S56      -0.073300
     12 N5           2.9710     0.5780    -0.5730 na         1 S56      -0.183400
     13 C25          3.9990    -0.3970    -0.8610 c3         1 S56       0.077600
     14 C26          4.6440    -0.9370     0.4080 c3         1 S56       0.136600
     15 O2           5.5870    -1.8980     0.0220 os         1 S56      -0.457000
     16 C27          6.2390    -2.4880     1.1200 c3         1 S56       0.147900
     17 C2           3.2290     1.8530    -0.1840 ca         1 S56       0.154500
     18 N2           4.4440     2.3820    -0.0260 nb         1 S56      -0.238000
     19 C1           4.4020     3.6510     0.3240 ca         1 S56       0.184900
     20 N1           3.3300     4.4170     0.5100 nb         1 S56      -0.303000
     21 C4           0.9760     1.5850    -0.3190 cd         1 S56      -0.031400
     22 C3           2.0140     2.5180    -0.0110 ca         1 S56      -0.249800
     23 C            2.1180     3.8800     0.3390 ca         1 S56       0.437900
     24 N            1.0530     4.6730     0.5250 nv         1 S56      -1.065900
     25 C5          -0.4750     1.8100    -0.2440 ca         1 S56      -0.039800
     26 C16         -1.0690     2.1670     0.9660 ca         1 S56      -0.091500
     27 C15         -2.4370     2.3710     1.0580 ca         1 S56      -0.123000
     28 C8          -3.2260     2.2190    -0.0700 ca         1 S56       0.104100
     29 C7          -2.6590     1.8710    -1.2880 ca         1 S56      -0.123000
     30 C6          -1.2890     1.6750    -1.3690 ca         1 S56      -0.091500
     31 O           -4.5720     2.4590     0.0270 os         1 S56      -0.258200
     32 C9          -5.4450     1.4190    -0.1030 ca         1 S56       0.130100
     33 C14         -6.7760     1.7570    -0.3300 ca         1 S56      -0.155500
     34 C13         -7.7270     0.7560    -0.4430 ca         1 S56      -0.080000
     35 C12         -7.3620    -0.5820    -0.3390 ca         1 S56      -0.141000
     36 C11         -6.0330    -0.9060    -0.1110 ca         1 S56      -0.080000
     37 C10         -5.0670     0.0860     0.0110 ca         1 S56      -0.155500
     38 H1           1.3460    -4.2330     0.9790 hn         1 S56       0.314500
     39 H2          -1.0590    -5.4390    -0.2060 h1         1 S56       0.080700
     40 H3           1.7490    -6.5950    -0.5640 hc         1 S56       0.044033
     41 H4           0.2430    -7.3510    -1.0890 hc         1 S56       0.044033
     42 H5           0.7810    -5.8510    -1.8430 hc         1 S56       0.044033
     43 H6           0.8950    -6.5100     1.8860 hc         1 S56       0.044033
     44 H7          -0.6810    -5.7780     2.2170 hc         1 S56       0.044033
     45 H8          -0.5770    -7.3110     1.3480 hc         1 S56       0.044033
     46 H9           1.9900    -2.2050     0.3500 hc         1 S56       0.079700
     47 H10          1.4580    -1.3250    -1.9080 hc         1 S56       0.081200
     48 H11         -0.0640    -0.6910    -1.3350 hc         1 S56       0.081200
     49 H12          3.5580    -1.2140    -1.4330 h1         1 S56       0.074200
     50 H13          4.7560     0.0670    -1.4950 h1         1 S56       0.074200
     51 H14          5.1140    -0.1190     0.9700 h1         1 S56       0.036200
     52 H15          3.8790    -1.3730     1.0680 h1         1 S56       0.036200
     53 H16          5.5360    -3.0120     1.7770 h1         1 S56       0.031700
     54 H17          6.9580    -3.2090     0.7350 h1         1 S56       0.031700
     55 H18          6.7760    -1.7470     1.7240 h1         1 S56       0.031700
     56 H19          5.3580     4.1410     0.4750 h5         1 S56       0.044100
     57 H20          1.1980     5.6610     0.6400 hn         1 S56       0.499500
     58 H21          0.1280     4.3710     0.2720 hn         1 S56       0.499500
     59 H22         -0.4560     2.2620     1.8540 ha         1 S56       0.126000
     60 H23         -2.8870     2.6430     2.0040 ha         1 S56       0.132000
     61 H24         -3.2780     1.7640    -2.1700 ha         1 S56       0.132000
     62 H25         -0.8470     1.4230    -2.3250 ha         1 S56       0.126000
     63 H26         -7.0580     2.7990    -0.4170 ha         1 S56       0.127500
     64 H27         -8.7600     1.0250    -0.6200 ha         1 S56       0.114000
     65 H28         -8.1070    -1.3600    -0.4320 ha         1 S56       0.115000
     66 H29         -5.7340    -1.9420    -0.0220 ha         1 S56       0.114000
     67 H30         -4.0370    -0.1900     0.1980 ha         1 S56       0.127500
@<TRIPOS>BOND
     1     1     2 2   
     2     2     3 1   
     3     2     7 1   
     4     3     4 1   
     5     3    38 1   
     6     4     5 1   
     7     4     6 1   
     8     4    39 1   
     9     5    40 1   
    10     5    41 1   
    11     5    42 1   
    12     6    43 1   
    13     6    44 1   
    14     6    45 1   
    15     7     8 1   
    16     7    10 1   
    17     7    46 1   
    18     8     9 3   
    19    10    11 1   
    20    10    47 1   
    21    10    48 1   
    22    11    12 1   
    23    11    21 2   
    24    12    13 1   
    25    12    17 1   
    26    13    14 1   
    27    13    49 1   
    28    13    50 1   
    29    14    15 1   
    30    14    51 1   
    31    14    52 1   
    32    15    16 1   
    33    16    53 1   
    34    16    54 1   
    35    16    55 1   
    36    17    18 ar  
    37    17    22 ar  
    38    18    19 ar  
    39    19    20 ar  
    40    19    56 1   
    41    20    23 ar  
    42    21    22 1   
    43    21    25 1   
    44    22    23 ar  
    45    23    24 1   
    46    24    57 1   
    47    24    58 1   
    48    25    26 ar  
    49    25    30 ar  
    50    26    27 ar  
    51    26    59 1   
    52    27    28 ar  
    53    27    60 1   
    54    28    29 ar  
    55    28    31 1   
    56    29    30 ar  
    57    29    61 1   
    58    30    62 1   
    59    31    32 1   
    60    32    33 ar  
    61    32    37 ar  
    62    33    34 ar  
    63    33    63 1   
    64    34    35 ar  
    65    34    64 1   
    66    35    36 ar  
    67    35    65 1   
    68    36    37 ar  
    69    36    66 1   
    70    37    67 1   
@<TRIPOS>SUBSTRUCTURE
     1 S56         1 TEMP              0 ****  ****    0 ROOT
