@<TRIPOS>MOLECULE
S57
   42    43     1     0     0
SMALL
No Charge or Current Charge


@<TRIPOS>ATOM
      1 C1           1.0810     0.0080     8.1520 c3         1 S57       0.147900
      2 O4           1.8590     0.0050     6.9410 os         1 S57      -0.339100
      3 C4A          1.2750     0.0070     5.6900 ca         1 S57       0.113100
      4 C3A         -0.1240     0.0120     5.5040 ca         1 S57      -0.157000
      5 C2A         -0.6590     0.0140     4.2040 ca         1 S57       0.114000
      6 Cl          -2.4130     0.0210     4.0090 cl         1 S57      -0.188000
      7 C1A          0.1900     0.0100     3.0750 ca         1 S57       0.118100
      8 C6A          1.5900     0.0050     3.2670 ca         1 S57      -0.156000
      9 C5A          2.1220     0.0030     4.5700 ca         1 S57      -0.107000
     10 O1          -0.3790     0.0120     1.8140 os         1 S57      -0.333100
     11 C6B          0.4110     0.0090     0.6130 c3         1 S57       0.165600
     12 C5B         -0.5600     0.0120    -0.5830 c3         1 S57      -0.081400
     13 C4B          0.1640     0.0090    -1.9470 c3         1 S57      -0.073400
     14 C3B         -0.8080     0.0120    -3.1470 c3         1 S57      -0.073400
     15 C2B         -0.0840     0.0080    -4.5110 c3         1 S57      -0.098400
     16 C1B         -1.0560     0.0110    -5.7080 c3         1 S57       0.072600
     17 N1          -0.3620     0.0070    -7.0040 na         1 S57      -0.167500
     18 C2C         -0.0350     1.1160    -7.7570 cc         1 S57       0.386400
     19 N3           0.5890     0.7590    -8.8720 nd         1 S57      -0.672000
     20 C4C          0.6670    -0.6190    -8.8320 cd         1 S57       0.228900
     21 C5C          0.0860    -1.1020    -7.6890 cc         1 S57      -0.236000
     22 H11          1.7420     0.0050     9.0280 h1         1 S57       0.041700
     23 H12          0.4480     0.9030     8.2070 h1         1 S57       0.041700
     24 H13          0.4410    -0.8820     8.2070 h1         1 S57       0.041700
     25 H3A         -0.8070     0.0150     6.3470 ha         1 S57       0.133000
     26 H6A          2.2770     0.0020     2.4260 ha         1 S57       0.121000
     27 H5A          3.2000    -0.0010     4.7130 ha         1 S57       0.130000
     28 H6B1         1.0520     0.8990     0.5670 h1         1 S57       0.034700
     29 H6B2         1.0450    -0.8870     0.5680 h1         1 S57       0.034700
     30 H5B1        -1.2110    -0.8680    -0.5160 hc         1 S57       0.057700
     31 H5B2        -1.2040     0.8970    -0.5160 hc         1 S57       0.057700
     32 H4B1         0.8170     0.8880    -2.0100 hc         1 S57       0.042200
     33 H4B2         0.8110    -0.8760    -2.0100 hc         1 S57       0.042200
     34 H3B1        -1.4620    -0.8670    -3.0840 hc         1 S57       0.042700
     35 H3B2        -1.4550     0.8970    -3.0850 hc         1 S57       0.042700
     36 H2B1         0.5690     0.8880    -4.5770 hc         1 S57       0.054200
     37 H2B2         0.5620    -0.8760    -4.5760 hc         1 S57       0.054200
     38 H1B1        -1.7030    -0.8740    -5.6550 h1         1 S57       0.059700
     39 H1B2        -1.6990     0.9000    -5.6550 h1         1 S57       0.059700
     40 H2C         -0.2740     2.1250    -7.4430 h5         1 S57       0.051100
     41 H4C          1.1360    -1.1850    -9.6280 h4         1 S57       0.037100
     42 H5C         -0.0330    -2.1170    -7.3290 h4         1 S57       0.155000
@<TRIPOS>BOND
     1     1     2 1   
     2     1    22 1   
     3     1    23 1   
     4     1    24 1   
     5     2     3 1   
     6     3     4 ar  
     7     3     9 ar  
     8     4     5 ar  
     9     4    25 1   
    10     5     6 1   
    11     5     7 ar  
    12     7     8 ar  
    13     7    10 1   
    14     8     9 ar  
    15     8    26 1   
    16     9    27 1   
    17    10    11 1   
    18    11    12 1   
    19    11    28 1   
    20    11    29 1   
    21    12    13 1   
    22    12    30 1   
    23    12    31 1   
    24    13    14 1   
    25    13    32 1   
    26    13    33 1   
    27    14    15 1   
    28    14    34 1   
    29    14    35 1   
    30    15    16 1   
    31    15    36 1   
    32    15    37 1   
    33    16    17 1   
    34    16    38 1   
    35    16    39 1   
    36    17    18 1   
    37    17    21 1   
    38    18    19 2   
    39    18    40 1   
    40    19    20 1   
    41    20    21 2   
    42    20    41 1   
    43    21    42 1   
@<TRIPOS>SUBSTRUCTURE
     1 S57         1 TEMP              0 ****  ****    0 ROOT
