@<TRIPOS>MOLECULE
S57
   42    43     1     0     0
SMALL
abcg2


@<TRIPOS>ATOM
      1 C1           1.1480    -0.0880     7.9200 c3         1 S57       0.147900
      2 O4           1.9300    -0.0240     6.7450 os         1 S57      -0.339100
      3 C4A          1.2970     0.0020     5.5550 ca         1 S57       0.113100
      4 C3A         -0.0860     0.0230     5.4050 ca         1 S57      -0.157000
      5 C2A         -0.6370     0.0510     4.1330 ca         1 S57       0.114000
      6 CL          -2.3590     0.0770     3.9650 cl         1 S57      -0.188000
      7 C1A          0.1480     0.0590     2.9820 ca         1 S57       0.118100
      8 C6A          1.5320     0.0390     3.1520 ca         1 S57      -0.156000
      9 C5A          2.0970     0.0100     4.4150 ca         1 S57      -0.107000
     10 O1          -0.4880     0.0860     1.8000 os         1 S57      -0.333100
     11 C6B          0.2850     0.0600     0.6090 c3         1 S57       0.165600
     12 C5B         -0.6640     0.0670    -0.5710 c3         1 S57      -0.081400
     13 C4B          0.0940     0.0340    -1.8930 c3         1 S57      -0.073400
     14 C3B         -0.8380     0.0390    -3.0990 c3         1 S57      -0.073400
     15 C2B         -0.0840     0.0010    -4.4210 c3         1 S57      -0.098400
     16 C1B         -1.0360     0.0130    -5.6090 c3         1 S57       0.072600
     17 N1          -0.3400    -0.0190    -6.8810 na         1 S57      -0.167500
     18 C2C         -0.0280     1.0450    -7.6500 cc         1 S57       0.386400
     19 N3           0.6700     0.7030    -8.7040 nd         1 S57      -0.672000
     20 C4C          0.8250    -0.6500    -8.6080 cd         1 S57       0.228900
     21 C5C          0.2080    -1.1170    -7.4810 cc         1 S57      -0.236000
     22 H11          1.8440    -0.1180     8.7550 h1         1 S57       0.041700
     23 H12          0.5050     0.7880     8.0330 h1         1 S57       0.041700
     24 H13          0.5270    -0.9880     7.9490 h1         1 S57       0.041700
     25 H3A         -0.7530     0.0180     6.2560 ha         1 S57       0.133000
     26 H6A          2.1930     0.0440     2.2960 ha         1 S57       0.121000
     27 H5A          3.1750    -0.0060     4.5170 ha         1 S57       0.130000
     28 H6B1         0.9490     0.9310     0.5660 h1         1 S57       0.034700
     29 H6B2         0.9140    -0.8380     0.5840 h1         1 S57       0.034700
     30 H5B1        -1.3310    -0.7980    -0.5070 hc         1 S57       0.057700
     31 H5B2        -1.2930     0.9600    -0.5280 hc         1 S57       0.057700
     32 H4B1         0.7680     0.8940    -1.9530 hc         1 S57       0.042200
     33 H4B2         0.7300    -0.8570    -1.9310 hc         1 S57       0.042200
     34 H3B1        -1.5140    -0.8200    -3.0380 hc         1 S57       0.042700
     35 H3B2        -1.4720     0.9310    -3.0630 hc         1 S57       0.042700
     36 H2B1         0.5900     0.8600    -4.4920 hc         1 S57       0.054200
     37 H2B2         0.5410    -0.8960    -4.4650 hc         1 S57       0.054200
     38 H1B1        -1.7100    -0.8430    -5.5660 h1         1 S57       0.059700
     39 H1B2        -1.6560     0.9100    -5.5920 h1         1 S57       0.059700
     40 H2C         -0.3460     2.0450    -7.3960 h5         1 S57       0.051100
     41 H4C          1.3630    -1.2190    -9.3510 h4         1 S57       0.037100
     42 H5C          0.1080    -2.1080    -7.0700 h4         1 S57       0.155000
@<TRIPOS>BOND
     1     1     2 1   
     2     1    22 1   
     3     1    23 1   
     4     1    24 1   
     5     2     3 1   
     6     3     4 ar  
     7     3     9 ar  
     8     4     5 ar  
     9     4    25 1   
    10     5     6 1   
    11     5     7 ar  
    12     7     8 ar  
    13     7    10 1   
    14     8     9 ar  
    15     8    26 1   
    16     9    27 1   
    17    10    11 1   
    18    11    12 1   
    19    11    28 1   
    20    11    29 1   
    21    12    13 1   
    22    12    30 1   
    23    12    31 1   
    24    13    14 1   
    25    13    32 1   
    26    13    33 1   
    27    14    15 1   
    28    14    34 1   
    29    14    35 1   
    30    15    16 1   
    31    15    36 1   
    32    15    37 1   
    33    16    17 1   
    34    16    38 1   
    35    16    39 1   
    36    17    18 1   
    37    17    21 1   
    38    18    19 2   
    39    18    40 1   
    40    19    20 1   
    41    20    21 2   
    42    20    41 1   
    43    21    42 1   
@<TRIPOS>SUBSTRUCTURE
     1 S57         1 TEMP              0 ****  ****    0 ROOT
