@<TRIPOS>MOLECULE
S58
   37    39     1     0     0
SMALL
No Charge or Current Charge


@<TRIPOS>ATOM
      1 C1           1.3240    -0.1330    -2.9710 cc         1 S58      -0.161000
      2 C2           0.8250     0.0920    -1.7170 cd         1 S58      -0.081000
      3 C3           0.2440    -0.1970    -3.8760 cc         1 S58       0.136300
      4 C4           0.4530    -0.4230    -5.3650 c3         1 S58       0.293700
      5 C5          -1.4450     0.0210    -0.8910 ca         1 S58       0.052800
      6 C6          -2.3230     1.0850    -0.6090 ca         1 S58      -0.119000
      7 C7          -3.2170     1.0010     0.4720 ca         1 S58      -0.002500
      8 C8          -3.2420    -0.1560     1.2780 ca         1 S58      -0.261500
      9 C9          -2.3770    -1.2310     0.9870 ca         1 S58      -0.002500
     10 C10         -1.4860    -1.1420    -0.0960 ca         1 S58      -0.119000
     11 C11          1.5980     0.1850    -0.4480 ca         1 S58      -0.028000
     12 C12          2.9480    -0.2370    -0.4300 ca         1 S58      -0.088000
     13 C13          3.7160    -0.1660     0.7450 ca         1 S58      -0.084500
     14 C14          3.1510     0.3420     1.9220 ca         1 S58      -0.009900
     15 C15          1.8220     0.7850     1.9230 ca         1 S58      -0.084500
     16 C16          1.0530     0.7130     0.7480 ca         1 S58      -0.088000
     17 N1          -0.5650     0.1100    -1.9690 na         1 S58       0.232000
     18 N2          -0.9340    -0.0790    -3.2890 nd         1 S58      -0.447800
     19 N3          -5.7140    -0.9210     1.9910 n8         1 S58      -1.035100
     20 O1          -4.8310     1.0600     3.0790 o          1 S58      -0.544000
     21 O2          -3.9500    -1.2820     3.6180 o          1 S58      -0.544000
     22 Br1          4.1950     0.4420     3.5220 br         1 S58      -0.081100
     23 F1          -0.7040    -0.3630    -6.0670 f          1 S58      -0.105667
     24 F2           1.2840     0.5040    -5.8940 f          1 S58      -0.105667
     25 F3           1.0020    -1.6350    -5.6080 f          1 S58      -0.105667
     26 S1          -4.3820    -0.2660     2.6610 sy         1 S58       1.152600
     27 H1           2.3650    -0.2280    -3.2600 ha         1 S58       0.165000
     28 H6          -2.3090     1.9800    -1.2280 ha         1 S58       0.140500
     29 H7          -3.8870     1.8350     0.6780 ha         1 S58       0.144000
     30 H9          -2.3920    -2.1350     1.5950 ha         1 S58       0.144000
     31 H10         -0.8210    -1.9750    -0.3150 ha         1 S58       0.140500
     32 H12          3.4120    -0.6460    -1.3230 ha         1 S58       0.126000
     33 H13          4.7490    -0.5060     0.7400 ha         1 S58       0.136000
     34 H15          1.3860     1.1950     2.8310 ha         1 S58       0.136000
     35 H16          0.0440     1.1050     0.7850 ha         1 S58       0.126000
     36 HN31        -6.4130    -0.2490     2.3000 hn         1 S58       0.486500
     37 HN32        -5.8690    -1.6960     2.6330 hn         1 S58       0.486500
@<TRIPOS>BOND
     1     1     2 2   
     2     1     3 1   
     3     1    27 1   
     4     2    11 1   
     5     2    17 1   
     6     3     4 1   
     7     3    18 2   
     8     4    23 1   
     9     4    24 1   
    10     4    25 1   
    11     5     6 ar  
    12     5    10 ar  
    13     5    17 1   
    14     6     7 ar  
    15     6    28 1   
    16     7     8 ar  
    17     7    29 1   
    18     8     9 ar  
    19     8    26 1   
    20     9    10 ar  
    21     9    30 1   
    22    10    31 1   
    23    11    12 ar  
    24    11    16 ar  
    25    12    13 ar  
    26    12    32 1   
    27    13    14 ar  
    28    13    33 1   
    29    14    15 ar  
    30    14    22 1   
    31    15    16 ar  
    32    15    34 1   
    33    16    35 1   
    34    17    18 1   
    35    19    26 1   
    36    19    36 1   
    37    19    37 1   
    38    20    26 2   
    39    21    26 2   
@<TRIPOS>SUBSTRUCTURE
     1 S58         1 TEMP              0 ****  ****    0 ROOT
