@<TRIPOS>MOLECULE
S58
   37    39     1     0     0
SMALL
bcc


@<TRIPOS>ATOM
      1 C1           1.4000    -0.0610    -2.9900 cc         1 S58      -0.244300
      2 C2           0.9330    -0.0220    -1.6980 cd         1 S58      -0.030300
      3 C3           0.2400    -0.0450    -3.7760 cc         1 S58       0.201600
      4 C4           0.1650    -0.0520    -5.2590 c3         1 S58       0.657600
      5 C5          -1.3800    -0.0450    -0.7500 ca         1 S58       0.052800
      6 C6          -2.4560     0.8320    -0.7840 ca         1 S58      -0.137000
      7 C7          -3.3990     0.7930     0.2260 ca         1 S58      -0.020500
      8 C8          -3.2470    -0.1160     1.2640 ca         1 S58      -0.261500
      9 C9          -2.1720    -0.9890     1.3030 ca         1 S58      -0.020500
     10 C10         -1.2370    -0.9600     0.2820 ca         1 S58      -0.137000
     11 C11          1.6840     0.0610    -0.4460 ca         1 S58      -0.028000
     12 C12          2.7910    -0.7620    -0.2540 ca         1 S58      -0.106000
     13 C13          3.5440    -0.6820     0.9050 ca         1 S58      -0.102500
     14 C14          3.1850     0.2310     1.8850 ca         1 S58      -0.009900
     15 C15          2.0890     1.0650     1.7120 ca         1 S58      -0.102500
     16 C16          1.3470     0.9790     0.5470 ca         1 S58      -0.106000
     17 N1          -0.4260    -0.0010    -1.7930 na         1 S58       0.181300
     18 N2          -0.8520    -0.0090    -3.0490 nd         1 S58      -0.447800
     19 N3          -5.6310    -1.1310     1.8990 n8         1 S58      -0.924700
     20 O1          -5.0520     1.1500     2.6910 o          1 S58      -0.614800
     21 O2          -3.8450    -0.8240     3.6970 o          1 S58      -0.614800
     22 BR1          4.2010     0.3460     3.4660 br         1 S58      -0.081100
     23 F1          -1.0910    -0.0560    -5.7010 f          1 S58      -0.226967
     24 F2           0.7750     1.0220    -5.7840 f          1 S58      -0.226967
     25 F3           0.7830    -1.1200    -5.7800 f          1 S58      -0.226967
     26 S1          -4.4620    -0.1700     2.5550 sy         1 S58       1.294200
     27 H1           2.4280    -0.0540    -3.3110 ha         1 S58       0.183000
     28 H6          -2.5540     1.5460    -1.5890 ha         1 S58       0.158500
     29 H7          -4.2340     1.4780     0.1980 ha         1 S58       0.162000
     30 H9          -2.0530    -1.7010     2.1060 ha         1 S58       0.162000
     31 H10         -0.4110    -1.6570     0.2940 ha         1 S58       0.158500
     32 H12          3.0650    -1.4860    -1.0100 ha         1 S58       0.144000
     33 H13          4.3960    -1.3360     1.0320 ha         1 S58       0.154000
     34 H15          1.8110     1.7860     2.4680 ha         1 S58       0.154000
     35 H16          0.5110     1.6530     0.4170 ha         1 S58       0.144000
     36 HN31        -6.5660    -0.7680     2.0280 hn         1 S58       0.431300
     37 HN32        -5.5680    -2.1080     2.1490 hn         1 S58       0.431300
@<TRIPOS>BOND
     1     1     2 2   
     2     1     3 1   
     3     1    27 1   
     4     2    11 1   
     5     2    17 1   
     6     3     4 1   
     7     3    18 2   
     8     4    23 1   
     9     4    24 1   
    10     4    25 1   
    11     5     6 ar  
    12     5    10 ar  
    13     5    17 1   
    14     6     7 ar  
    15     6    28 1   
    16     7     8 ar  
    17     7    29 1   
    18     8     9 ar  
    19     8    26 1   
    20     9    10 ar  
    21     9    30 1   
    22    10    31 1   
    23    11    12 ar  
    24    11    16 ar  
    25    12    13 ar  
    26    12    32 1   
    27    13    14 ar  
    28    13    33 1   
    29    14    15 ar  
    30    14    22 1   
    31    15    16 ar  
    32    15    34 1   
    33    16    35 1   
    34    17    18 1   
    35    19    26 1   
    36    19    36 1   
    37    19    37 1   
    38    20    26 2   
    39    21    26 2   
@<TRIPOS>SUBSTRUCTURE
     1 S58         1 TEMP              0 ****  ****    0 ROOT
