@<TRIPOS>MOLECULE
S59
   49    52     1     0     0
SMALL
abcg2


@<TRIPOS>ATOM
      1 C13          4.4430   -14.8040     5.3180 ca         1 S59       0.136000
      2 C15          4.2830   -13.2540     7.1440 ca         1 S59       0.663900
      3 C20          4.3660    -9.4840    10.0920 ca         1 S59       0.326900
      4 C21          3.8170   -10.1330    11.1870 ca         1 S59       0.233900
      5 C24          4.8600   -15.1540     3.9620 cc         1 S59      -0.177000
      6 C28          4.9440   -16.4390     3.3750 cc         1 S59       0.267900
      7 C01          1.3180   -17.0480    10.0080 c3         1 S59      -0.104100
      8 C02          2.2920   -15.9550     9.5650 c3         1 S59       0.295800
      9 C03          3.4730   -15.8620    10.5210 ca         1 S59      -0.116300
     10 C04          4.6820   -16.5020    10.2630 ca         1 S59      -0.075500
     11 C05          5.7400   -16.4260    11.1640 ca         1 S59      -0.142000
     12 C06          5.5610   -15.7020    12.3280 ca         1 S59       0.162000
     13 C07          4.3750   -15.0560    12.6240 ca         1 S59      -0.142000
     14 C08          3.3340   -15.1430    11.7070 ca         1 S59      -0.075500
     15 C11          3.3720   -15.3400     7.4060 ca         1 S59       0.662900
     16 C12          3.7690   -15.7230     6.1150 ca         1 S59      -0.277000
     17 C14          4.7100   -13.5350     5.8470 ca         1 S59      -0.280000
     18 C18          4.2870   -11.4130     8.8710 ca         1 S59       0.563900
     19 C23          3.7370   -12.0780     9.9890 ca         1 S59       0.273900
     20 C25          5.2170   -14.2960     2.9290 cd         1 S59      -0.132000
     21 F09          6.5900   -15.6170    13.2130 f          1 S59      -0.186000
     22 N10          2.6720   -16.2100     8.1890 nu         1 S59      -0.944100
     23 N16          3.6270   -14.1240     7.9130 nb         1 S59      -0.802000
     24 N17          4.5770   -11.9960     7.6590 nu         1 S59      -0.907800
     25 N19          4.6000   -10.1120     8.9430 nb         1 S59      -0.723000
     26 N22          3.5100   -11.4340    11.1240 nb         1 S59      -0.621000
     27 N26          5.4740   -15.0550     1.8470 na         1 S59       0.120800
     28 N27          5.3240   -16.3730     2.1030 nd         1 S59      -0.523800
     29 H211         3.6300    -9.6120    12.1170 h4         1 S59       0.029100
     30 H281         4.7520   -17.3980     3.8300 h4         1 S59       0.040100
     31 H012         0.9920   -16.8690    11.0320 hc         1 S59       0.046367
     32 H013         0.4410   -17.0650     9.3580 hc         1 S59       0.046367
     33 H011         1.8030   -18.0270     9.9710 hc         1 S59       0.046367
     34 H021         1.7720   -14.9950     9.6020 h1         1 S59       0.076700
     35 H041         4.8120   -17.0530     9.3410 ha         1 S59       0.117500
     36 H051         6.6860   -16.9110    10.9660 ha         1 S59       0.133500
     37 H071         4.2770   -14.4890    13.5400 ha         1 S59       0.133500
     38 H081         2.4060   -14.6230    11.9120 ha         1 S59       0.117500
     39 H121         3.5270   -16.7120     5.7530 ha         1 S59       0.121000
     40 H141         5.2510   -12.7900     5.2800 ha         1 S59       0.120000
     41 H231         3.4970   -13.1260     9.9340 h4         1 S59       0.065100
     42 H251         5.2870   -13.2220     2.8860 h4         1 S59       0.156000
     43 H101         2.5800   -17.1540     7.8520 hn         1 S59       0.490000
     44 H171         4.9900   -11.3480     7.0030 hn         1 S59       0.508000
     45 C29          5.9640   -14.6130     0.5550 c3         1 S59       0.073900
     46 H201         4.6200    -8.4310    10.1390 h4         1 S59       0.025100
     47 H293         5.5450   -15.2530    -0.2180 h1         1 S59       0.059033
     48 H292         5.6480   -13.5850     0.3910 h1         1 S59       0.059033
     49 H291         7.0530   -14.6670     0.5200 h1         1 S59       0.059033
@<TRIPOS>BOND
     1     1     5 1   
     2     1    16 ar  
     3     1    17 ar  
     4     2    17 ar  
     5     2    23 ar  
     6     2    24 1   
     7     3     4 ar  
     8     3    25 ar  
     9     3    46 1   
    10     4    26 ar  
    11     4    29 1   
    12     5     6 1   
    13     5    20 2   
    14     6    28 2   
    15     6    30 1   
    16     7     8 1   
    17     7    31 1   
    18     7    32 1   
    19     7    33 1   
    20     8     9 1   
    21     8    22 1   
    22     8    34 1   
    23     9    10 ar  
    24     9    14 ar  
    25    10    11 ar  
    26    10    35 1   
    27    11    12 ar  
    28    11    36 1   
    29    12    13 ar  
    30    12    21 1   
    31    13    14 ar  
    32    13    37 1   
    33    14    38 1   
    34    15    16 ar  
    35    15    22 1   
    36    15    23 ar  
    37    16    39 1   
    38    17    40 1   
    39    18    19 ar  
    40    18    24 1   
    41    18    25 ar  
    42    19    26 ar  
    43    19    41 1   
    44    20    27 1   
    45    20    42 1   
    46    22    43 1   
    47    24    44 1   
    48    27    28 1   
    49    27    45 1   
    50    45    47 1   
    51    45    48 1   
    52    45    49 1   
@<TRIPOS>SUBSTRUCTURE
     1 S59         1 TEMP              0 ****  ****    0 ROOT
