@<TRIPOS>MOLECULE
S59
   49    52     1     0     0
SMALL
No Charge or Current Charge


@<TRIPOS>ATOM
      1 C13          4.3070   -14.7070     5.4250 ca         1 S59       0.136000
      2 C15          3.9520   -13.0800     7.1700 ca         1 S59       0.663900
      3 C20          4.0590    -9.2390     9.9950 ca         1 S59       0.326900
      4 C21          3.1150    -9.6530    10.9770 ca         1 S59       0.233900
      5 C24          4.8190   -15.1290     4.1190 cc         1 S59      -0.177000
      6 C28          4.7460   -16.3780     3.4800 cc         1 S59       0.267900
      7 C01          1.3480   -16.9670    10.2870 c3         1 S59      -0.104100
      8 C02          2.3680   -15.9290     9.7820 c3         1 S59       0.295800
      9 C03          3.7390   -16.0970    10.4430 ca         1 S59      -0.116300
     10 C04          4.4780   -17.2920    10.2930 ca         1 S59      -0.075500
     11 C05          5.7380   -17.4290    10.9020 ca         1 S59      -0.142000
     12 C06          6.2660   -16.3740    11.6610 ca         1 S59       0.162000
     13 C07          5.5430   -15.1820    11.8160 ca         1 S59      -0.142000
     14 C08          4.2830   -15.0430    11.2080 ca         1 S59      -0.075500
     15 C11          3.1550   -15.1720     7.4890 ca         1 S59       0.662900
     16 C12          3.6230   -15.6090     6.2500 ca         1 S59      -0.277000
     17 C14          4.4730   -13.4030     5.9170 ca         1 S59      -0.280000
     18 C18          3.7180   -11.1720     8.8230 ca         1 S59       0.563900
     19 C23          2.7540   -11.5960     9.8030 ca         1 S59       0.273900
     20 C25          5.4930   -14.2980     3.2720 cd         1 S59      -0.132000
     21 F09          7.4770   -16.5070    12.2450 f          1 S59      -0.186000
     22 N10          2.4880   -16.0340     8.3230 nu         1 S59      -0.944100
     23 N16          3.3060   -13.9340     7.9500 nb         1 S59      -0.802000
     24 N17          4.1170   -11.8230     7.6800 nu         1 S59      -0.907800
     25 N19          4.3670    -9.9960     8.9030 nb         1 S59      -0.723000
     26 N22          2.4450   -10.8360    10.8970 nb         1 S59      -0.621000
     27 N26          5.7900   -15.1000     2.1630 na         1 S59       0.120800
     28 N27          5.3210   -16.4020     2.2950 nd         1 S59      -0.523800
     29 H211         2.8940    -9.0210    11.8370 h4         1 S59       0.029100
     30 H281         4.2830   -17.2830     3.8510 h4         1 S59       0.040100
     31 H012         1.2450   -16.8960    11.3760 hc         1 S59       0.046367
     32 H013         0.3630   -16.7870     9.8410 hc         1 S59       0.046367
     33 H011         1.6580   -17.9890    10.0380 hc         1 S59       0.046367
     34 H021         1.9690   -14.9390    10.0440 h1         1 S59       0.076700
     35 H041         4.0800   -18.1130     9.7010 ha         1 S59       0.117500
     36 H051         6.3050   -18.3490    10.7850 ha         1 S59       0.133500
     37 H071         5.9590   -14.3690    12.4040 ha         1 S59       0.133500
     38 H081         3.7300   -14.1150    11.3310 ha         1 S59       0.117500
     39 H121         3.4590   -16.6350     5.9420 ha         1 S59       0.121000
     40 H141         4.9940   -12.6470     5.3430 ha         1 S59       0.120000
     41 H231         2.2160   -12.5350     9.7110 h4         1 S59       0.065100
     42 H251         5.7810   -13.2560     3.3430 h4         1 S59       0.156000
     43 H101         2.3600   -16.9590     7.9270 hn         1 S59       0.490000
     44 H171         4.7340   -11.2420     7.1300 hn         1 S59       0.508000
     45 C29          6.5140   -14.6810     0.9540 c3         1 S59       0.073900
     46 H201         4.5730    -8.2840    10.0880 h4         1 S59       0.025100
     47 H293         5.8680   -14.8110     0.0770 h1         1 S59       0.059033
     48 H292         6.8000   -13.6260     1.0400 h1         1 S59       0.059033
     49 H291         7.4160   -15.2930     0.8370 h1         1 S59       0.059033
@<TRIPOS>BOND
     1     1     5 1   
     2     1    16 ar  
     3     1    17 ar  
     4     2    17 ar  
     5     2    23 ar  
     6     2    24 1   
     7     3     4 ar  
     8     3    25 ar  
     9     3    46 1   
    10     4    26 ar  
    11     4    29 1   
    12     5     6 1   
    13     5    20 2   
    14     6    28 2   
    15     6    30 1   
    16     7     8 1   
    17     7    31 1   
    18     7    32 1   
    19     7    33 1   
    20     8     9 1   
    21     8    22 1   
    22     8    34 1   
    23     9    10 ar  
    24     9    14 ar  
    25    10    11 ar  
    26    10    35 1   
    27    11    12 ar  
    28    11    36 1   
    29    12    13 ar  
    30    12    21 1   
    31    13    14 ar  
    32    13    37 1   
    33    14    38 1   
    34    15    16 ar  
    35    15    22 1   
    36    15    23 ar  
    37    16    39 1   
    38    17    40 1   
    39    18    19 ar  
    40    18    24 1   
    41    18    25 ar  
    42    19    26 ar  
    43    19    41 1   
    44    20    27 1   
    45    20    42 1   
    46    22    43 1   
    47    24    44 1   
    48    27    28 1   
    49    27    45 1   
    50    45    47 1   
    51    45    48 1   
    52    45    49 1   
@<TRIPOS>SUBSTRUCTURE
     1 S59         1 TEMP              0 ****  ****    0 ROOT
