@<TRIPOS>MOLECULE
S5A
   31    32     1     0     0
SMALL
No Charge or Current Charge


@<TRIPOS>ATOM
      1 C4          -9.2360    82.3470   143.5480 ca         1 S5A      -0.102000
      2 C5          -9.8000    81.0500   143.4580 cp         1 S5A      -0.069000
      3 C6          -8.9800    80.0100   142.9520 ca         1 S5A      -0.102000
      4 C7          -7.6550    80.2570   142.5540 ca         1 S5A      -0.101000
      5 C8         -11.2130    80.7860   143.8820 cp         1 S5A      -0.031000
      6 C10        -12.9080    79.3080   144.8800 ca         1 S5A      -0.172500
      7 C13        -12.2280    81.7600   143.6960 ca         1 S5A      -0.072000
      8 C           -4.6880    82.0210   143.3850 c3         1 S5A      -0.198400
      9 C11        -13.8930    80.2870   144.6850 ca         1 S5A       0.110100
     10 C12        -13.5540    81.5120   144.0930 ca         1 S5A      -0.172500
     11 C14         -4.4560    80.6970   144.1340 c          1 S5A       0.705000
     12 C2          -7.1100    81.5500   142.6520 ca         1 S5A      -0.024300
     13 C3          -7.9110    82.5940   143.1510 ca         1 S5A      -0.101000
     14 C9         -11.5820    79.5550   144.4820 ca         1 S5A      -0.072000
     15 O1          -5.1480    80.4510   145.1100 o          1 S5A      -0.741000
     16 O2          -3.5960    79.9400   143.7090 o          1 S5A      -0.741000
     17 H1          -9.8260    83.1710   143.9430 ha         1 S5A       0.096500
     18 H2          -9.3770    79.0030   142.8530 ha         1 S5A       0.096500
     19 H3          -7.0510    79.4390   142.1660 ha         1 S5A       0.118500
     20 H4         -13.1600    78.3560   145.3410 ha         1 S5A       0.111000
     21 H5         -11.9890    82.7110   143.2270 ha         1 S5A       0.119500
     22 H6          -3.7540    82.3490   142.9120 hc         1 S5A       0.023200
     23 H7          -5.1310    82.7750   144.0460 hc         1 S5A       0.023200
     24 H8         -15.2290    79.1550   145.4570 ho         1 S5A       0.455000
     25 H9          -5.3120    81.0170   141.5620 hc         1 S5A       0.030200
     26 H10         -5.6620    82.7300   141.5900 hc         1 S5A       0.030200
     27 H11        -14.3170    82.2700   143.9380 ha         1 S5A       0.111000
     28 H12         -7.5040    83.5990   143.2320 ha         1 S5A       0.118500
     29 H13        -10.8300    78.7890   144.6550 ha         1 S5A       0.119500
     30 O          -15.1790    80.0550   145.0670 oh         1 S5A      -0.550100
     31 C1          -5.6770    81.8240   142.2090 c3         1 S5A      -0.017100
@<TRIPOS>BOND
     1     1     2 ar  
     2     1    13 ar  
     3     1    17 1   
     4     2     3 ar  
     5     2     5 1   
     6     3     4 ar  
     7     3    18 1   
     8     4    12 ar  
     9     4    19 1   
    10     5     7 ar  
    11     5    14 ar  
    12     6     9 ar  
    13     6    14 ar  
    14     6    20 1   
    15     7    10 ar  
    16     7    21 1   
    17     8    11 1   
    18     8    22 1   
    19     8    23 1   
    20     8    31 1   
    21     9    10 ar  
    22     9    30 1   
    23    10    27 1   
    24    11    15 1   
    25    11    16 1   
    26    12    13 ar  
    27    12    31 1   
    28    13    28 1   
    29    14    29 1   
    30    24    30 1   
    31    25    31 1   
    32    26    31 1   
@<TRIPOS>SUBSTRUCTURE
     1 S5A         1 TEMP              0 ****  ****    0 ROOT
