@<TRIPOS>MOLECULE
S5A
   31    32     1     0     0
SMALL
abcg2


@<TRIPOS>ATOM
      1 C4          -9.2510    82.3680   143.4930 ca         1 S5A      -0.102000
      2 C5          -9.7810    81.0720   143.4380 cp         1 S5A      -0.069000
      3 C6          -8.9520    80.0550   142.9540 ca         1 S5A      -0.102000
      4 C7          -7.6510    80.3210   142.5450 ca         1 S5A      -0.101000
      5 C8         -11.1670    80.7900   143.8700 cp         1 S5A      -0.031000
      6 C10        -12.8000    79.3070   144.8950 ca         1 S5A      -0.172500
      7 C13        -12.1950    81.7200   143.6700 ca         1 S5A      -0.072000
      8 C           -4.7480    81.9460   143.4110 c3         1 S5A      -0.198400
      9 C11        -13.8060    80.2490   144.6860 ca         1 S5A       0.110100
     10 C12        -13.4980    81.4600   144.0690 ca         1 S5A      -0.172500
     11 C14         -4.6610    80.6090   144.1710 c          1 S5A       0.705000
     12 C2          -7.1240    81.6110   142.6020 ca         1 S5A      -0.024300
     13 C3          -7.9510    82.6280   143.0840 ca         1 S5A      -0.101000
     14 C9         -11.5010    79.5810   144.4900 ca         1 S5A      -0.072000
     15 O1          -4.9420    80.6200   145.3980 o          1 S5A      -0.741000
     16 O2          -4.3060    79.6000   143.5060 o          1 S5A      -0.741000
     17 H1          -9.8580    83.1790   143.8760 ha         1 S5A       0.096500
     18 H2          -9.3350    79.0450   142.8740 ha         1 S5A       0.096500
     19 H3          -7.0350    79.5130   142.1710 ha         1 S5A       0.118500
     20 H4         -13.0360    78.3680   145.3840 ha         1 S5A       0.111000
     21 H5         -11.9800    82.6580   143.1760 ha         1 S5A       0.119500
     22 H6          -3.7440    82.1990   143.0540 hc         1 S5A       0.023200
     23 H7          -5.0660    82.7330   144.0970 hc         1 S5A       0.023200
     24 H8         -15.1850    79.1660   145.4750 ho         1 S5A       0.455000
     25 H9          -5.3500    81.1210   141.5160 hc         1 S5A       0.030200
     26 H10         -5.6500    82.8500   141.6760 hc         1 S5A       0.030200
     27 H11        -14.2840    82.1840   143.9000 ha         1 S5A       0.111000
     28 H12         -7.5680    83.6410   143.1450 ha         1 S5A       0.118500
     29 H13        -10.7310    78.8440   144.6790 ha         1 S5A       0.119500
     30 O          -15.1010    80.0370   145.0620 oh         1 S5A      -0.550100
     31 C1          -5.6990    81.8930   142.2030 c3         1 S5A      -0.017100
@<TRIPOS>BOND
     1     1     2 ar  
     2     1    13 ar  
     3     1    17 1   
     4     2     3 ar  
     5     2     5 1   
     6     3     4 ar  
     7     3    18 1   
     8     4    12 ar  
     9     4    19 1   
    10     5     7 ar  
    11     5    14 ar  
    12     6     9 ar  
    13     6    14 ar  
    14     6    20 1   
    15     7    10 ar  
    16     7    21 1   
    17     8    11 1   
    18     8    22 1   
    19     8    23 1   
    20     8    31 1   
    21     9    10 ar  
    22     9    30 1   
    23    10    27 1   
    24    11    15 1   
    25    11    16 1   
    26    12    13 ar  
    27    12    31 1   
    28    13    28 1   
    29    14    29 1   
    30    24    30 1   
    31    25    31 1   
    32    26    31 1   
@<TRIPOS>SUBSTRUCTURE
     1 S5A         1 TEMP              0 ****  ****    0 ROOT
