@<TRIPOS>MOLECULE
S5B
   55    58     1     0     0
SMALL
No Charge or Current Charge


@<TRIPOS>ATOM
      1 C01          4.9660     1.7150     0.8830 c3         1 S5B      -0.131400
      2 C02          5.3830     0.3500     0.4060 cc         1 S5B       0.293300
      3 N01          6.6530     0.0490     0.1930 nd         1 S5B      -0.390300
      4 O01          6.6160    -1.3240    -0.2190 os         1 S5B      -0.086700
      5 C03          5.3120    -1.7470    -0.2300 cd         1 S5B       0.184300
      6 C04          5.0320    -3.1160    -0.7950 c3         1 S5B      -0.134400
      7 C05          4.4960    -0.7390     0.2050 cc         1 S5B      -0.149000
      8 C06          3.0230    -0.8180     0.1790 ca         1 S5B      -0.016000
      9 C07          2.2460     0.3060    -0.1540 ca         1 S5B      -0.147000
     10 C08          0.8450     0.2350    -0.1720 ca         1 S5B      -0.064000
     11 C09          0.1770    -0.9660     0.1600 ca         1 S5B      -0.132000
     12 C10         -1.2360    -1.0770     0.1640 ca         1 S5B       0.366000
     13 N02         -2.0700     0.0100    -0.0930 nu         1 S5B      -1.005000
     14 C11         -2.1150     1.3100     0.4220 ca         1 S5B       0.310000
     15 C12         -1.5880     1.4910     1.7170 ca         1 S5B      -0.145000
     16 C13         -1.6020     2.7430     2.3390 ca         1 S5B      -0.103000
     17 C14         -2.1520     3.8350     1.6660 ca         1 S5B      -0.147000
     18 C15         -2.6780     3.6790     0.3750 ca         1 S5B      -0.109000
     19 C16         -2.6760     2.4200    -0.2910 ca         1 S5B      -0.075300
     20 C17         -3.2280     2.3030    -1.7590 c3         1 S5B       0.015300
     21 C18         -3.7560     3.6590    -2.3190 c3         1 S5B      -0.085100
     22 C19         -2.0980     1.8430    -2.7250 c3         1 S5B      -0.085100
     23 C20         -4.4220     1.3110    -1.8240 c3         1 S5B      -0.085100
     24 C21         -1.8150    -2.3220     0.4430 ca         1 S5B      -0.288600
     25 C22         -0.9760    -3.3910     0.7500 ca         1 S5B       0.412900
     26 N1           0.3700    -3.2930     0.7760 nb         1 S5B      -0.742000
     27 C23          0.9450    -2.1080     0.4810 ca         1 S5B       0.288000
     28 C24          2.3490    -2.0160     0.4930 ca         1 S5B      -0.093000
     29 C1          -3.2830    -2.5610     0.4590 c          1 S5B       0.727600
     30 O02         -3.7200    -3.3880     1.2440 o          1 S5B      -0.708000
     31 O1          -3.9840    -1.9460    -0.3300 o          1 S5B      -0.708000
     32 H011         4.7170     2.3640     0.0360 hc         1 S5B       0.054367
     33 H012         4.0950     1.6540     1.5460 hc         1 S5B       0.054367
     34 H013         5.7740     2.1960     1.4460 hc         1 S5B       0.054367
     35 H041         5.8560    -3.4510    -1.4360 hc         1 S5B       0.062033
     36 H042         4.9140    -3.8560     0.0050 hc         1 S5B       0.062033
     37 H043         4.1220    -3.1160    -1.4070 hc         1 S5B       0.062033
     38 H07          2.7160     1.2390    -0.4430 ha         1 S5B       0.100000
     39 H24          2.9120    -2.8950     0.7870 ha         1 S5B       0.117000
     40 H08          0.2930     1.1220    -0.4670 ha         1 S5B       0.120000
     41 H02         -2.9830    -0.3170    -0.4350 hn         1 S5B       0.567000
     42 H12         -1.1690     0.6460     2.2550 ha         1 S5B       0.126000
     43 H13         -1.1930     2.8630     3.3400 ha         1 S5B       0.103000
     44 H14         -2.1690     4.8120     2.1440 ha         1 S5B       0.098000
     45 H15         -3.0810     4.5740    -0.0870 ha         1 S5B       0.101000
     46 H181        -2.9610     4.4150    -2.3480 hc         1 S5B       0.034922
     47 H182        -4.1270     3.5450    -3.3450 hc         1 S5B       0.034922
     48 H183        -4.5870     4.0430    -1.7150 hc         1 S5B       0.034922
     49 H191        -1.7560     0.8240    -2.5170 hc         1 S5B       0.034922
     50 H192        -2.4430     1.8560    -3.7660 hc         1 S5B       0.034922
     51 H193        -1.2310     2.5100    -2.6490 hc         1 S5B       0.034922
     52 H201        -5.1560     1.5350    -1.0410 hc         1 S5B       0.034922
     53 H202        -4.9330     1.3730    -2.7920 hc         1 S5B       0.034922
     54 H203        -4.1020     0.2730    -1.7120 hc         1 S5B       0.034922
     55 H22         -1.3800    -4.3770     0.9810 h4         1 S5B       0.036100
@<TRIPOS>BOND
     1     1     2 1   
     2     1    32 1   
     3     1    33 1   
     4     1    34 1   
     5     2     3 2   
     6     2     7 1   
     7     3     4 1   
     8     4     5 1   
     9     5     6 1   
    10     5     7 2   
    11     6    35 1   
    12     6    36 1   
    13     6    37 1   
    14     7     8 1   
    15     8     9 ar  
    16     8    28 ar  
    17     9    10 ar  
    18     9    38 1   
    19    10    11 ar  
    20    10    40 1   
    21    11    12 ar  
    22    11    27 ar  
    23    12    13 1   
    24    12    24 ar  
    25    13    14 1   
    26    13    41 1   
    27    14    15 ar  
    28    14    19 ar  
    29    15    16 ar  
    30    15    42 1   
    31    16    17 ar  
    32    16    43 1   
    33    17    18 ar  
    34    17    44 1   
    35    18    19 ar  
    36    18    45 1   
    37    19    20 1   
    38    20    21 1   
    39    20    22 1   
    40    20    23 1   
    41    21    46 1   
    42    21    47 1   
    43    21    48 1   
    44    22    49 1   
    45    22    50 1   
    46    22    51 1   
    47    23    52 1   
    48    23    53 1   
    49    23    54 1   
    50    24    25 ar  
    51    24    29 1   
    52    25    26 ar  
    53    25    55 1   
    54    26    27 ar  
    55    27    28 ar  
    56    28    39 1   
    57    29    30 1   
    58    29    31 1   
@<TRIPOS>SUBSTRUCTURE
     1 S5B         1 TEMP              0 ****  ****    0 ROOT
