@<TRIPOS>MOLECULE
S5B
   55    58     1     0     0
SMALL
bcc


@<TRIPOS>ATOM
      1 C01          4.6870     1.7020     1.1860 c3         1 S5B      -0.131400
      2 C02          5.1140     0.4430     0.5200 cc         1 S5B       0.358600
      3 N01          6.3740     0.1870     0.3270 nd         1 S5B      -0.390300
      4 O01          6.4320    -1.0320    -0.2870 os         1 S5B      -0.131100
      5 C03          5.2010    -1.5170    -0.4550 cd         1 S5B       0.294000
      6 C04          5.0640    -2.8340    -1.1160 c3         1 S5B      -0.134400
      7 C05          4.2980    -0.6260     0.0400 cc         1 S5B      -0.279600
      8 C06          2.8410    -0.7440     0.0890 ca         1 S5B      -0.016000
      9 C07          2.0230     0.3510    -0.2740 ca         1 S5B      -0.165000
     10 C08          0.6590     0.2620    -0.2150 ca         1 S5B      -0.082000
     11 C09          0.0170    -0.9290     0.1940 ca         1 S5B      -0.197300
     12 C10         -1.4100    -1.0870     0.2650 ca         1 S5B       0.227600
     13 N02         -2.2740    -0.0660     0.0280 nu         1 S5B      -0.673000
     14 C11         -2.1110     1.2630     0.4770 ca         1 S5B       0.171600
     15 C12         -1.5960     1.4650     1.7580 ca         1 S5B      -0.163000
     16 C13         -1.4380     2.7360     2.2790 ca         1 S5B      -0.121000
     17 C14         -1.8260     3.8250     1.5160 ca         1 S5B      -0.165000
     18 C15         -2.3490     3.6250     0.2470 ca         1 S5B      -0.127000
     19 C16         -2.4980     2.3570    -0.3210 ca         1 S5B      -0.075300
     20 C17         -3.0310     2.2040    -1.7520 c3         1 S5B       0.015300
     21 C18         -3.3050     3.5660    -2.4010 c3         1 S5B      -0.085100
     22 C19         -1.9940     1.4950    -2.6380 c3         1 S5B      -0.085100
     23 C20         -4.3560     1.4280    -1.7730 c3         1 S5B      -0.085100
     24 C21         -1.9060    -2.3720     0.5190 ca         1 S5B      -0.353900
     25 C22         -0.9780    -3.3930     0.7850 ca         1 S5B       0.478200
     26 N1           0.3230    -3.2690     0.8060 nb         1 S5B      -0.742000
     27 C23          0.8280    -2.0490     0.4960 ca         1 S5B       0.418600
     28 C24          2.2330    -1.9180     0.4640 ca         1 S5B      -0.176300
     29 C1          -3.3820    -2.7030     0.5670 c          1 S5B       0.938200
     30 O02         -3.7000    -3.8620     0.8710 o          1 S5B      -0.813300
     31 O1          -4.1920    -1.7760     0.2900 o          1 S5B      -0.813300
     32 H011         4.2060     2.3770     0.4780 hc         1 S5B       0.054367
     33 H012         3.9680     1.4950     1.9780 hc         1 S5B       0.054367
     34 H013         5.5410     2.2200     1.6180 hc         1 S5B       0.054367
     35 H041         5.7760    -2.9400    -1.9340 hc         1 S5B       0.062033
     36 H042         5.2390    -3.6500    -0.4120 hc         1 S5B       0.062033
     37 H043         4.0590    -2.9500    -1.5160 hc         1 S5B       0.062033
     38 H07          2.4750     1.2680    -0.6270 ha         1 S5B       0.118000
     39 H24          2.8190    -2.7820     0.7540 ha         1 S5B       0.135000
     40 H08          0.0820     1.1230    -0.5160 ha         1 S5B       0.138000
     41 H02         -3.2390    -0.4430     0.0520 hn         1 S5B       0.511800
     42 H12         -1.3180     0.6030     2.3520 ha         1 S5B       0.144000
     43 H13         -1.0310     2.8710     3.2730 ha         1 S5B       0.121000
     44 H14         -1.7230     4.8320     1.9000 ha         1 S5B       0.116000
     45 H15         -2.6360     4.5010    -0.3160 ha         1 S5B       0.119000
     46 H181        -2.4110     4.1900    -2.4440 hc         1 S5B       0.034922
     47 H182        -3.6410     3.4100    -3.4270 hc         1 S5B       0.034922
     48 H183        -4.0890     4.1250    -1.8860 hc         1 S5B       0.034922
     49 H191        -1.7630     0.4910    -2.2880 hc         1 S5B       0.034922
     50 H192        -2.3770     1.4110    -3.6570 hc         1 S5B       0.034922
     51 H193        -1.0650     2.0650    -2.6820 hc         1 S5B       0.034922
     52 H201        -5.0930     1.8890    -1.1130 hc         1 S5B       0.034922
     53 H202        -4.7700     1.4340    -2.7840 hc         1 S5B       0.034922
     54 H203        -4.2470     0.3850    -1.4830 hc         1 S5B       0.034922
     55 H22         -1.3690    -4.3780     1.0140 h4         1 S5B       0.036100
@<TRIPOS>BOND
     1     1     2 1   
     2     1    32 1   
     3     1    33 1   
     4     1    34 1   
     5     2     3 2   
     6     2     7 1   
     7     3     4 1   
     8     4     5 1   
     9     5     6 1   
    10     5     7 2   
    11     6    35 1   
    12     6    36 1   
    13     6    37 1   
    14     7     8 1   
    15     8     9 ar  
    16     8    28 ar  
    17     9    10 ar  
    18     9    38 1   
    19    10    11 ar  
    20    10    40 1   
    21    11    12 ar  
    22    11    27 ar  
    23    12    13 1   
    24    12    24 ar  
    25    13    14 1   
    26    13    41 1   
    27    14    15 ar  
    28    14    19 ar  
    29    15    16 ar  
    30    15    42 1   
    31    16    17 ar  
    32    16    43 1   
    33    17    18 ar  
    34    17    44 1   
    35    18    19 ar  
    36    18    45 1   
    37    19    20 1   
    38    20    21 1   
    39    20    22 1   
    40    20    23 1   
    41    21    46 1   
    42    21    47 1   
    43    21    48 1   
    44    22    49 1   
    45    22    50 1   
    46    22    51 1   
    47    23    52 1   
    48    23    53 1   
    49    23    54 1   
    50    24    25 ar  
    51    24    29 1   
    52    25    26 ar  
    53    25    55 1   
    54    26    27 ar  
    55    27    28 ar  
    56    28    39 1   
    57    29    30 1   
    58    29    31 1   
@<TRIPOS>SUBSTRUCTURE
     1 S5B         1 TEMP              0 ****  ****    0 ROOT
