@<TRIPOS>MOLECULE
S5D
   54    56     1     0     0
SMALL
abcg2


@<TRIPOS>ATOM
      1 C1          -0.1210     0.9600    -0.1590 ca         1 S5D      -0.100000
      2 C2          -1.2940     1.6030    -0.5520 ca         1 S5D      -0.079300
      3 C3          -1.2640     2.9800    -0.7440 ca         1 S5D      -0.104000
      4 C4          -0.0840     3.6890    -0.5530 ca         1 S5D      -0.110000
      5 C5           1.0740     3.0330    -0.1660 ca         1 S5D      -0.104000
      6 C6           1.0660     1.6540     0.0410 ca         1 S5D      -0.070300
      7 N11         -5.5410     0.4670    -0.0770 nb         1 S5D      -0.753000
      8 C12         -6.6960    -0.1610    -0.2630 ca         1 S5D       0.599900
      9 N12         -7.7220     0.5690    -0.7920 nv         1 S5D      -1.054900
     10 C13         -6.8900    -1.5040     0.1080 ca         1 S5D      -0.232000
     11 C14         -5.8470    -2.1960     0.6870 ca         1 S5D       0.000700
     12 C15         -4.6350    -1.5210     0.8810 ca         1 S5D      -0.216000
     13 C16         -4.5310    -0.2010     0.4860 ca         1 S5D       0.398300
     14 C19         -2.5700     0.8250    -0.7110 c3         1 S5D      -0.026100
     15 N21          5.4060     0.3500     0.3680 nb         1 S5D      -0.768000
     16 C22          6.4150    -0.4660     0.6550 ca         1 S5D       0.604900
     17 N22          7.3840     0.0150     1.4880 nv         1 S5D      -1.056900
     18 C23          6.5220    -1.7520     0.1000 ca         1 S5D      -0.232000
     19 C24          5.5510    -2.1860    -0.7790 ca         1 S5D       0.003700
     20 C25          4.4930    -1.3190    -1.0730 ca         1 S5D      -0.214000
     21 C26          4.4620    -0.0680    -0.4800 ca         1 S5D       0.396300
     22 C28          3.3130     0.8650    -0.7340 c3         1 S5D      -0.167700
     23 C29          2.3210     0.9190     0.4530 c3         1 S5D       0.211800
     24 N29          2.8570     1.4920     1.6790 n8         1 S5D      -0.979200
     25 H1          -0.1370    -0.1140    -0.0040 ha         1 S5D       0.109000
     26 H3          -2.1650     3.5010    -1.0450 ha         1 S5D       0.114000
     27 H4          -0.0680     4.7610    -0.7090 ha         1 S5D       0.111000
     28 H5           1.9820     3.6080    -0.0280 ha         1 S5D       0.108000
     29 HN12        -7.4620     1.4100    -1.2800 hn         1 S5D       0.467500
     30 HN1A        -8.4780     0.0640    -1.2230 hn         1 S5D       0.467500
     31 H13         -7.8470    -1.9810    -0.0620 ha         1 S5D       0.118000
     32 H15         -3.7900    -2.0250     1.3330 ha         1 S5D       0.121000
     33 H17         -5.2750    -4.2600     0.5820 hc         1 S5D       0.046033
     34 H17A        -5.8040    -3.7420     2.1710 hc         1 S5D       0.046033
     35 H17B        -6.9940    -4.0080     0.8950 hc         1 S5D       0.046033
     36 H19         -3.2650     1.3720    -1.3510 hc         1 S5D       0.053200
     37 H19A        -2.3660    -0.1300    -1.2020 hc         1 S5D       0.053200
     38 HN22         7.1300     0.8070     2.0550 hn         1 S5D       0.470000
     39 HN2A         7.9760    -0.6530     1.9520 hn         1 S5D       0.470000
     40 H23          7.3580    -2.3910     0.3630 ha         1 S5D       0.120000
     41 H25          3.7060    -1.6190    -1.7530 ha         1 S5D       0.123000
     42 H28          3.6880     1.8730    -0.9340 hc         1 S5D       0.061700
     43 H28A         2.7780     0.5370    -1.6270 hc         1 S5D       0.061700
     44 H29          2.0370    -0.1140     0.6800 h1         1 S5D       0.062700
     45 HN29         3.7250     1.0210     1.9060 hn         1 S5D       0.398500
     46 HN2B         3.1290     2.4550     1.5120 hn         1 S5D       0.398500
     47 C27          5.6270    -3.5400    -1.4150 c3         1 S5D      -0.054800
     48 C18         -3.2440     0.5580     0.6430 c3         1 S5D      -0.125700
     49 C17         -5.9950    -3.6270     1.1030 c3         1 S5D      -0.053800
     50 H18         -3.4450     1.5130     1.1350 hc         1 S5D       0.058700
     51 H18A        -2.5600     0.0020     1.2870 hc         1 S5D       0.058700
     52 H27          4.6830    -4.0770    -1.3140 hc         1 S5D       0.047033
     53 H27A         5.8290    -3.4500    -2.4840 hc         1 S5D       0.047033
     54 H27B         6.4150    -4.1490    -0.9760 hc         1 S5D       0.047033
@<TRIPOS>BOND
     1     1     2 ar  
     2     1     6 ar  
     3     1    25 1   
     4     2     3 ar  
     5     2    14 1   
     6     3     4 ar  
     7     3    26 1   
     8     4     5 ar  
     9     4    27 1   
    10     5     6 ar  
    11     5    28 1   
    12     6    23 1   
    13     7     8 ar  
    14     7    13 ar  
    15     8     9 1   
    16     8    10 ar  
    17     9    29 1   
    18     9    30 1   
    19    10    11 ar  
    20    10    31 1   
    21    11    12 ar  
    22    11    49 1   
    23    12    13 ar  
    24    12    32 1   
    25    13    48 1   
    26    14    36 1   
    27    14    37 1   
    28    14    48 1   
    29    15    16 ar  
    30    15    21 ar  
    31    16    17 1   
    32    16    18 ar  
    33    17    38 1   
    34    17    39 1   
    35    18    19 ar  
    36    18    40 1   
    37    19    20 ar  
    38    19    47 1   
    39    20    21 ar  
    40    20    41 1   
    41    21    22 1   
    42    22    23 1   
    43    22    42 1   
    44    22    43 1   
    45    23    24 1   
    46    23    44 1   
    47    24    45 1   
    48    24    46 1   
    49    33    49 1   
    50    34    49 1   
    51    35    49 1   
    52    47    52 1   
    53    47    53 1   
    54    47    54 1   
    55    48    50 1   
    56    48    51 1   
@<TRIPOS>SUBSTRUCTURE
     1 S5D         1 TEMP              0 ****  ****    0 ROOT
