@<TRIPOS>MOLECULE
S5D
   54    56     1     0     0
SMALL
No Charge or Current Charge


@<TRIPOS>ATOM
      1 C1          -0.1440     0.8280    -0.2310 ca         1 S5D      -0.100000
      2 C2          -1.3200     1.4740    -0.6610 ca         1 S5D      -0.079300
      3 C3          -1.2780     2.8400    -0.9920 ca         1 S5D      -0.104000
      4 C4          -0.0720     3.5530    -0.8960 ca         1 S5D      -0.110000
      5 C5           1.0990     2.9040    -0.4690 ca         1 S5D      -0.104000
      6 C6           1.0730     1.5330    -0.1350 ca         1 S5D      -0.070300
      7 N11         -5.8420     0.6310     0.3150 nb         1 S5D      -0.753000
      8 C12         -6.9730    -0.0540     0.2420 ca         1 S5D       0.599900
      9 N12         -8.0170     0.7560     0.0610 nv         1 S5D      -1.054900
     10 C13         -7.0790    -1.4440     0.3260 ca         1 S5D      -0.232000
     11 C14         -5.9070    -2.1930     0.5080 ca         1 S5D       0.000700
     12 C15         -4.6970    -1.4850     0.5940 ca         1 S5D      -0.216000
     13 C16         -4.7060    -0.0800     0.4930 ca         1 S5D       0.398300
     14 C19         -2.6280     0.6990    -0.7580 c3         1 S5D      -0.026100
     15 N21          5.6460     0.4350     0.4410 nb         1 S5D      -0.768000
     16 C22          6.6330    -0.4130     0.6860 ca         1 S5D       0.604900
     17 N22          7.5450     0.1350     1.4900 nv         1 S5D      -1.056900
     18 C23          6.7190    -1.7160     0.1920 ca         1 S5D      -0.232000
     19 C24          5.6910    -2.1820    -0.6390 ca         1 S5D       0.003700
     20 C25          4.6370    -1.2970    -0.9200 ca         1 S5D      -0.214000
     21 C26          4.6520    -0.0030    -0.3650 ca         1 S5D       0.396300
     22 C28          3.5230     0.9740    -0.6460 c3         1 S5D      -0.167700
     23 C29          2.3380     0.8060     0.3280 c3         1 S5D       0.211800
     24 N29          2.7290     1.2480     1.6730 n8         1 S5D      -0.979200
     25 H1          -0.1780    -0.2270     0.0290 ha         1 S5D       0.109000
     26 H3          -2.1810     3.3520    -1.3210 ha         1 S5D       0.114000
     27 H4          -0.0450     4.6100    -1.1510 ha         1 S5D       0.111000
     28 H5           2.0230     3.4710    -0.3970 ha         1 S5D       0.108000
     29 HN12        -7.7750     1.7000    -0.2170 hn         1 S5D       0.467500
     30 HN1A        -8.8540     0.3610    -0.3510 hn         1 S5D       0.467500
     31 H13         -8.0480    -1.9280     0.2560 ha         1 S5D       0.118000
     32 H15         -3.7580    -2.0120     0.7360 ha         1 S5D       0.121000
     33 H17         -5.0330    -4.1580     0.2010 hc         1 S5D       0.046033
     34 H17A        -6.0320    -4.0240     1.6600 hc         1 S5D       0.046033
     35 H17B        -6.7960    -4.1260     0.0640 hc         1 S5D       0.046033
     36 H19         -3.2600     1.1220    -1.5490 hc         1 S5D       0.053200
     37 H19A        -2.4290    -0.3390    -1.0510 hc         1 S5D       0.053200
     38 HN22         7.2430     0.9850     1.9490 hn         1 S5D       0.470000
     39 HN2A         8.1320    -0.4900     2.0300 hn         1 S5D       0.470000
     40 H23          7.5650    -2.3470     0.4450 ha         1 S5D       0.120000
     41 H25          3.8150    -1.6040    -1.5610 ha         1 S5D       0.123000
     42 H28          3.8920     2.0060    -0.6210 hc         1 S5D       0.061700
     43 H28A         3.1580     0.8120    -1.6670 hc         1 S5D       0.061700
     44 H29          2.1150    -0.2700     0.3840 h1         1 S5D       0.062700
     45 HN29         3.6950     0.9340     1.8300 hn         1 S5D       0.398500
     46 HN2B         2.8160     2.2680     1.6610 hn         1 S5D       0.398500
     47 C27          5.7170    -3.5870    -1.2190 c3         1 S5D      -0.054800
     48 C18         -3.4100     0.7110     0.5730 c3         1 S5D      -0.125700
     49 C17         -5.9440    -3.7080     0.6130 c3         1 S5D      -0.053800
     50 H18         -3.6110     1.7500     0.8600 hc         1 S5D       0.058700
     51 H18A        -2.7750     0.2930     1.3630 hc         1 S5D       0.058700
     52 H27          4.7040    -3.9890    -1.3350 hc         1 S5D       0.047033
     53 H27A         6.1960    -3.5920    -2.2050 hc         1 S5D       0.047033
     54 H27B         6.2740    -4.2750    -0.5720 hc         1 S5D       0.047033
@<TRIPOS>BOND
     1     1     2 ar  
     2     1     6 ar  
     3     1    25 1   
     4     2     3 ar  
     5     2    14 1   
     6     3     4 ar  
     7     3    26 1   
     8     4     5 ar  
     9     4    27 1   
    10     5     6 ar  
    11     5    28 1   
    12     6    23 1   
    13     7     8 ar  
    14     7    13 ar  
    15     8     9 1   
    16     8    10 ar  
    17     9    29 1   
    18     9    30 1   
    19    10    11 ar  
    20    10    31 1   
    21    11    12 ar  
    22    11    49 1   
    23    12    13 ar  
    24    12    32 1   
    25    13    48 1   
    26    14    36 1   
    27    14    37 1   
    28    14    48 1   
    29    15    16 ar  
    30    15    21 ar  
    31    16    17 1   
    32    16    18 ar  
    33    17    38 1   
    34    17    39 1   
    35    18    19 ar  
    36    18    40 1   
    37    19    20 ar  
    38    19    47 1   
    39    20    21 ar  
    40    20    41 1   
    41    21    22 1   
    42    22    23 1   
    43    22    42 1   
    44    22    43 1   
    45    23    24 1   
    46    23    44 1   
    47    24    45 1   
    48    24    46 1   
    49    33    49 1   
    50    34    49 1   
    51    35    49 1   
    52    47    52 1   
    53    47    53 1   
    54    47    54 1   
    55    48    50 1   
    56    48    51 1   
@<TRIPOS>SUBSTRUCTURE
     1 S5D         1 TEMP              0 ****  ****    0 ROOT
