@<TRIPOS>MOLECULE
S5E
   72    75     1     0     0
SMALL
No Charge or Current Charge


@<TRIPOS>ATOM
      1 C1         -14.6190   -38.1210     3.1050 cc         1 S5E       0.306300
      2 C2         -14.2150   -37.0220     3.9140 cc         1 S5E      -0.313600
      3 C3         -13.0580   -37.4730     4.5010 cd         1 S5E       0.374500
      4 C7         -14.9290   -35.7440     4.1080 c          1 S5E       0.635700
      5 C8         -16.3920   -34.0250     2.9770 c3         1 S5E       0.030700
      6 C9         -17.5630   -34.0400     1.9660 c3         1 S5E      -0.087400
      7 C10        -18.7230   -34.9820     2.3580 c3         1 S5E      -0.027100
      8 C11        -19.8470   -34.9490     1.3310 ca         1 S5E      -0.089300
      9 C12        -19.8230   -35.8220     0.2260 ca         1 S5E      -0.108000
     10 C13        -20.8560   -35.7870    -0.7270 ca         1 S5E      -0.107000
     11 C14        -21.9170   -34.8770    -0.5810 ca         1 S5E      -0.107000
     12 C15        -21.9440   -34.0020     0.5180 ca         1 S5E      -0.107000
     13 C16        -20.9120   -34.0370     1.4710 ca         1 S5E      -0.108000
     14 C19        -12.9570   -32.2990     0.2580 c3         1 S5E      -0.173400
     15 C20        -14.1830   -31.5070    -0.1900 c          1 S5E       0.592100
     16 C21        -16.4250   -31.6960    -1.3090 c3         1 S5E       0.094300
     17 C22        -11.7140   -33.2860     2.2440 ca         1 S5E      -0.070300
     18 C24        -10.2850   -35.2700     2.2880 ca         1 S5E      -0.060500
     19 C27        -10.8060   -32.6350     3.1000 ca         1 S5E      -0.109500
     20 F2          -7.6450   -34.8640     4.7970 f          1 S5E      -0.109333
     21 F           -8.3080   -36.6690     3.7910 f          1 S5E      -0.109333
     22 F1          -7.1090   -35.2080     2.7190 f          1 S5E      -0.109333
     23 C25         -9.3770   -34.6210     3.1490 ca         1 S5E      -0.182300
     24 C23        -11.4410   -34.6100     1.8400 ca         1 S5E      -0.109500
     25 C26         -9.6450   -33.2920     3.5440 ca         1 S5E      -0.060500
     26 C18        -12.9830   -32.5740     1.7760 c3         1 S5E       0.162000
     27 N5         -15.1540   -32.2440    -0.8300 ns         1 S5E      -0.511900
     28 O3         -14.2830   -30.3000    -0.0230 o          1 S5E      -0.587100
     29 N4         -14.1400   -33.3860     2.1400 ns         1 S5E      -0.508900
     30 C17        -15.3510   -32.9210     2.6140 c          1 S5E       0.593100
     31 O2         -15.5710   -31.7290     2.7720 o          1 S5E      -0.565100
     32 N3         -15.7470   -35.3620     3.0700 ns         1 S5E      -0.502900
     33 O1         -14.8100   -35.0240     5.0820 o          1 S5E      -0.596100
     34 O          -12.8150   -38.7620     4.1110 os         1 S5E      -0.078700
     35 N          -13.8210   -39.1680     3.1860 nd         1 S5E      -0.351300
     36 C          -15.8780   -38.1980     2.2800 c3         1 S5E      -0.140400
     37 C4         -12.0840   -36.7540     5.3040 cd         1 S5E      -0.396500
     38 S          -12.0100   -35.0450     5.6380 ss         1 S5E       0.487100
     39 N2         -10.6050   -35.2380     6.5220 nd         1 S5E      -0.181100
     40 N1         -10.1700   -36.4740     6.5630 nc         1 S5E      -0.313000
     41 C5         -10.9760   -37.3440     5.8700 cc         1 S5E       0.291300
     42 C6         -10.5570   -38.7910     5.8520 c3         1 S5E      -0.126400
     43 H1         -16.7860   -33.7560     3.9660 h1         1 S5E       0.108700
     44 H2         -17.1840   -34.3210     0.9750 hc         1 S5E       0.058200
     45 H3         -17.9610   -33.0220     1.8690 hc         1 S5E       0.058200
     46 H4         -19.1040   -34.6930     3.3460 hc         1 S5E       0.052200
     47 H5         -18.3490   -36.0070     2.4640 hc         1 S5E       0.052200
     48 H6         -19.0040   -36.5270     0.1050 ha         1 S5E       0.109500
     49 H7         -20.8330   -36.4640    -1.5780 ha         1 S5E       0.115500
     50 H8         -22.7160   -34.8500    -1.3190 ha         1 S5E       0.117000
     51 H9         -22.7640   -33.2970     0.6310 ha         1 S5E       0.115500
     52 H10        -20.9380   -33.3540     2.3170 ha         1 S5E       0.109500
     53 H11        -12.9190   -33.2590    -0.2690 hc         1 S5E       0.068700
     54 H12        -12.0580   -31.7130     0.0320 hc         1 S5E       0.068700
     55 H13        -17.0230   -32.4970    -1.7610 h1         1 S5E       0.044700
     56 H14        -16.9800   -31.2620    -0.4670 h1         1 S5E       0.044700
     57 H15        -16.2330   -30.9180    -2.0600 h1         1 S5E       0.044700
     58 H16        -10.0960   -36.2900     1.9570 ha         1 S5E       0.135500
     59 H17        -10.9950   -31.6130     3.4230 ha         1 S5E       0.119500
     60 H18        -12.1230   -35.1330     1.1740 ha         1 S5E       0.119500
     61 H19         -8.9560   -32.7610     4.1980 ha         1 S5E       0.135500
     62 H20        -13.0530   -31.6090     2.3000 h1         1 S5E       0.114700
     63 H21        -14.9780   -33.2350    -0.9450 hn         1 S5E       0.306500
     64 H22        -14.0490   -34.3910     2.0740 hn         1 S5E       0.301500
     65 H23        -15.8260   -35.9930     2.2840 hn         1 S5E       0.316500
     66 H24        -16.0690   -39.2280     1.9550 hc         1 S5E       0.062033
     67 H25        -16.7520   -37.8800     2.8600 hc         1 S5E       0.062033
     68 H26        -15.8000   -37.5850     1.3750 hc         1 S5E       0.062033
     69 H27         -9.6820   -38.9610     6.4910 hc         1 S5E       0.065033
     70 H28        -11.3610   -39.4370     6.2200 hc         1 S5E       0.065033
     71 H29        -10.2880   -39.1060     4.8380 hc         1 S5E       0.065033
     72 C28         -8.1090   -35.3420     3.6190 c3         1 S5E       0.345300
@<TRIPOS>BOND
     1     1     2 1   
     2     1    35 2   
     3     1    36 1   
     4     2     3 2   
     5     2     4 1   
     6     3    34 1   
     7     3    37 1   
     8     4    32 1   
     9     4    33 2   
    10     5     6 1   
    11     5    30 1   
    12     5    32 1   
    13     5    43 1   
    14     6     7 1   
    15     6    44 1   
    16     6    45 1   
    17     7     8 1   
    18     7    46 1   
    19     7    47 1   
    20     8     9 ar  
    21     8    13 ar  
    22     9    10 ar  
    23     9    48 1   
    24    10    11 ar  
    25    10    49 1   
    26    11    12 ar  
    27    11    50 1   
    28    12    13 ar  
    29    12    51 1   
    30    13    52 1   
    31    14    15 1   
    32    14    26 1   
    33    14    53 1   
    34    14    54 1   
    35    15    27 1   
    36    15    28 2   
    37    16    27 1   
    38    16    55 1   
    39    16    56 1   
    40    16    57 1   
    41    17    19 ar  
    42    17    24 ar  
    43    17    26 1   
    44    18    23 ar  
    45    18    24 ar  
    46    18    58 1   
    47    19    25 ar  
    48    19    59 1   
    49    20    72 1   
    50    21    72 1   
    51    22    72 1   
    52    23    25 ar  
    53    23    72 1   
    54    24    60 1   
    55    25    61 1   
    56    26    29 1   
    57    26    62 1   
    58    27    63 1   
    59    29    30 1   
    60    29    64 1   
    61    30    31 2   
    62    32    65 1   
    63    34    35 1   
    64    36    66 1   
    65    36    67 1   
    66    36    68 1   
    67    37    38 1   
    68    37    41 2   
    69    38    39 1   
    70    39    40 2   
    71    40    41 1   
    72    41    42 1   
    73    42    69 1   
    74    42    70 1   
    75    42    71 1   
@<TRIPOS>SUBSTRUCTURE
     1 S5E         1 TEMP              0 ****  ****    0 ROOT
