@<TRIPOS>MOLECULE
S5E
   72    75     1     0     0
SMALL
abcg2


@<TRIPOS>ATOM
      1 C1         -14.9420   -38.4130     3.7050 cc         1 S5E       0.306300
      2 C2         -14.4410   -37.1800     4.2320 cc         1 S5E      -0.313600
      3 C3         -13.1910   -37.4930     4.7140 cd         1 S5E       0.374500
      4 C7         -15.0730   -35.8550     4.2960 c          1 S5E       0.635700
      5 C8         -16.4710   -34.1700     3.2430 c3         1 S5E       0.030700
      6 C9         -17.4560   -34.0470     2.0810 c3         1 S5E      -0.087400
      7 C10        -18.7460   -34.8560     2.2650 c3         1 S5E      -0.027100
      8 C11        -19.6420   -34.6950     1.0650 ca         1 S5E      -0.089300
      9 C12        -19.4420   -35.4740    -0.0770 ca         1 S5E      -0.108000
     10 C13        -20.2150   -35.2810    -1.2160 ca         1 S5E      -0.107000
     11 C14        -21.2060   -34.3030    -1.2300 ca         1 S5E      -0.107000
     12 C15        -21.4170   -33.5240    -0.0970 ca         1 S5E      -0.107000
     13 C16        -20.6390   -33.7190     1.0400 ca         1 S5E      -0.108000
     14 C19        -13.1790   -32.5050     0.4030 c3         1 S5E      -0.173400
     15 C20        -14.4600   -31.8120    -0.0220 c          1 S5E       0.592100
     16 C21        -16.6710   -32.0910    -1.0490 c3         1 S5E       0.094300
     17 C22        -11.8680   -33.3860     2.3570 ca         1 S5E      -0.070300
     18 C24        -10.4170   -35.3110     2.5520 ca         1 S5E      -0.060500
     19 C27        -10.8440   -32.5840     2.8550 ca         1 S5E      -0.109500
     20 F2          -7.4200   -34.4700     4.3420 f          1 S5E      -0.109333
     21 F           -8.0570   -36.3880     3.5480 f          1 S5E      -0.109333
     22 F1          -7.2100   -34.8940     2.2270 f          1 S5E      -0.109333
     23 C25         -9.3980   -34.4950     3.0290 ca         1 S5E      -0.182300
     24 C23        -11.6440   -34.7560     2.2200 ca         1 S5E      -0.109500
     25 C26         -9.6130   -33.1290     3.1890 ca         1 S5E      -0.060500
     26 C18        -13.1750   -32.7520     1.9270 c3         1 S5E       0.162000
     27 N5         -15.3590   -32.5780    -0.6610 ns         1 S5E      -0.511900
     28 O3         -14.6660   -30.6250     0.2410 o          1 S5E      -0.587100
     29 N4         -14.3190   -33.5630     2.3010 ns         1 S5E      -0.508900
     30 C17        -15.3450   -33.1400     3.0590 c          1 S5E       0.593100
     31 O2         -15.4400   -32.0140     3.5390 o          1 S5E      -0.565100
     32 N3         -15.9560   -35.5270     3.3320 ns         1 S5E      -0.502900
     33 O1         -14.7750   -35.0590     5.1920 o          1 S5E      -0.596100
     34 O          -12.9630   -38.8020     4.4980 os         1 S5E      -0.078700
     35 N          -14.0750   -39.3760     3.8720 nd         1 S5E      -0.351300
     36 C          -16.2530   -38.6960     3.0560 c3         1 S5E      -0.140400
     37 C4         -12.1140   -36.7470     5.3170 cd         1 S5E      -0.396500
     38 S          -12.2020   -35.1320     5.8880 ss         1 S5E       0.487100
     39 N2         -10.6010   -35.1240     6.3320 nd         1 S5E      -0.181100
     40 N1         -10.0090   -36.2460     6.0860 nc         1 S5E      -0.313000
     41 C5         -10.8080   -37.1890     5.5130 cc         1 S5E       0.291300
     42 C6         -10.2090   -38.5090     5.1600 c3         1 S5E      -0.126400
     43 H1         -16.9630   -33.9110     4.1810 h1         1 S5E       0.108700
     44 H2         -16.9550   -34.3580     1.1590 hc         1 S5E       0.058200
     45 H3         -17.7060   -32.9920     1.9640 hc         1 S5E       0.058200
     46 H4         -19.2580   -34.5130     3.1670 hc         1 S5E       0.052200
     47 H5         -18.5060   -35.9110     2.4080 hc         1 S5E       0.052200
     48 H6         -18.6690   -36.2350    -0.0710 ha         1 S5E       0.109500
     49 H7         -20.0460   -35.8950    -2.0920 ha         1 S5E       0.115500
     50 H8         -21.8100   -34.1520    -2.1160 ha         1 S5E       0.117000
     51 H9         -22.1880   -32.7630    -0.0980 ha         1 S5E       0.115500
     52 H10        -20.8040   -33.1070     1.9190 ha         1 S5E       0.109500
     53 H11        -13.0500   -33.4590    -0.1130 hc         1 S5E       0.068700
     54 H12        -12.3370   -31.8610     0.1480 hc         1 S5E       0.068700
     55 H13        -17.2460   -32.9270    -1.4390 h1         1 S5E       0.044700
     56 H14        -17.1940   -31.6700    -0.1900 h1         1 S5E       0.044700
     57 H15        -16.5920   -31.3200    -1.8180 h1         1 S5E       0.044700
     58 H16        -10.2580   -36.3740     2.4380 ha         1 S5E       0.135500
     59 H17        -11.0110   -31.5210     2.9790 ha         1 S5E       0.119500
     60 H18        -12.4240   -35.4090     1.8510 ha         1 S5E       0.119500
     61 H19         -8.8260   -32.4930     3.5720 ha         1 S5E       0.135500
     62 H20        -13.2910   -31.7980     2.4360 h1         1 S5E       0.114700
     63 H21        -15.1390   -33.5470    -0.8250 hn         1 S5E       0.306500
     64 H22        -14.3820   -34.4890     1.9090 hn         1 S5E       0.301500
     65 H23        -16.0930   -36.1440     2.5460 hn         1 S5E       0.316500
     66 H24        -16.3940   -39.7710     2.9620 hc         1 S5E       0.062033
     67 H25        -17.0720   -38.2750     3.6400 hc         1 S5E       0.062033
     68 H26        -16.2930   -38.2600     2.0550 hc         1 S5E       0.062033
     69 H27         -9.1420   -38.4800     5.3730 hc         1 S5E       0.065033
     70 H28        -10.6650   -39.3170     5.7330 hc         1 S5E       0.065033
     71 H29        -10.3550   -38.7340     4.1030 hc         1 S5E       0.065033
     72 C28         -8.0370   -35.0630     3.2960 c3         1 S5E       0.345300
@<TRIPOS>BOND
     1     1     2 1   
     2     1    35 2   
     3     1    36 1   
     4     2     3 2   
     5     2     4 1   
     6     3    34 1   
     7     3    37 1   
     8     4    32 1   
     9     4    33 2   
    10     5     6 1   
    11     5    30 1   
    12     5    32 1   
    13     5    43 1   
    14     6     7 1   
    15     6    44 1   
    16     6    45 1   
    17     7     8 1   
    18     7    46 1   
    19     7    47 1   
    20     8     9 ar  
    21     8    13 ar  
    22     9    10 ar  
    23     9    48 1   
    24    10    11 ar  
    25    10    49 1   
    26    11    12 ar  
    27    11    50 1   
    28    12    13 ar  
    29    12    51 1   
    30    13    52 1   
    31    14    15 1   
    32    14    26 1   
    33    14    53 1   
    34    14    54 1   
    35    15    27 1   
    36    15    28 2   
    37    16    27 1   
    38    16    55 1   
    39    16    56 1   
    40    16    57 1   
    41    17    19 ar  
    42    17    24 ar  
    43    17    26 1   
    44    18    23 ar  
    45    18    24 ar  
    46    18    58 1   
    47    19    25 ar  
    48    19    59 1   
    49    20    72 1   
    50    21    72 1   
    51    22    72 1   
    52    23    25 ar  
    53    23    72 1   
    54    24    60 1   
    55    25    61 1   
    56    26    29 1   
    57    26    62 1   
    58    27    63 1   
    59    29    30 1   
    60    29    64 1   
    61    30    31 2   
    62    32    65 1   
    63    34    35 1   
    64    36    66 1   
    65    36    67 1   
    66    36    68 1   
    67    37    38 1   
    68    37    41 2   
    69    38    39 1   
    70    39    40 2   
    71    40    41 1   
    72    41    42 1   
    73    42    69 1   
    74    42    70 1   
    75    42    71 1   
@<TRIPOS>SUBSTRUCTURE
     1 S5E         1 TEMP              0 ****  ****    0 ROOT
