@<TRIPOS>MOLECULE
S5F
   39    42     1     0     0
SMALL
abcg2


@<TRIPOS>ATOM
      1 C18        -21.9400     4.8580    20.0070 cc         1 S5F       0.374400
      2 C20        -20.7270     4.9390    13.4160 c          1 S5F       0.711400
      3 C10        -24.9870     9.1240    17.6600 cy         1 S5F      -0.078900
      4 C11        -26.1790     8.2150    18.0530 cy         1 S5F      -0.091400
      5 C15        -21.2150     6.8440    20.4180 cc         1 S5F       0.374400
      6 C13        -23.4390     6.7350    19.2060 c3         1 S5F       0.095600
      7 C12        -25.6200     7.1170    17.1140 cy         1 S5F      -0.078900
      8 C02        -21.7810     6.6680    12.1080 cc         1 S5F       0.298600
      9 C03        -22.4060     7.1650    13.1980 cd         1 S5F      -0.471600
     10 C04        -22.1600     6.4740    14.4340 cd         1 S5F       0.791500
     11 C06        -22.5060     6.2840    16.8650 c5         1 S5F       0.234800
     12 C07        -23.1000     7.3040    17.8360 c5         1 S5F      -0.095700
     13 C08        -24.2730     7.9000    17.0400 cy         1 S5F      -0.089000
     14 C09        -23.6520     8.0480    15.6570 c5         1 S5F       0.238800
     15 N05        -22.7450     6.8990    15.5570 nh         1 S5F      -0.739600
     16 N14        -22.2590     6.1720    19.8630 na         1 S5F      -0.393000
     17 N16        -20.3200     6.0040    20.8760 nd         1 S5F      -0.354500
     18 N17        -20.7860     4.7280    20.6110 nd         1 S5F      -0.354500
     19 N19        -21.3550     5.4090    14.5140 nc         1 S5F      -0.763100
     20 N21        -20.9700     5.5920    12.1920 ns         1 S5F      -0.526600
     21 CL01       -21.9640     7.3610    10.5400 cl         1 S5F      -0.153000
     22 H181       -22.5750     4.0570    19.6630 h5         1 S5F       0.062600
     23 H101       -24.4560     9.6310    18.4670 hc         1 S5F       0.057700
     24 H102       -25.2570     9.8600    16.9010 hc         1 S5F       0.057700
     25 H111       -27.1750     8.5900    17.8230 hc         1 S5F       0.054700
     26 H112       -26.1510     7.9220    19.1020 hc         1 S5F       0.054700
     27 H151       -21.1610     7.9200    20.4660 h5         1 S5F       0.062600
     28 H132       -23.8450     7.5110    19.8530 h1         1 S5F       0.067700
     29 H131       -24.1700     5.9330    19.1340 h1         1 S5F       0.067700
     30 H122       -26.1190     7.1110    16.1450 hc         1 S5F       0.057700
     31 H121       -25.5910     6.0960    17.4920 hc         1 S5F       0.057700
     32 H031       -23.0430     8.0290    13.1260 ha         1 S5F       0.214000
     33 H062       -23.0190     5.3190    16.9310 h1         1 S5F       0.074700
     34 H061       -21.4430     6.1100    17.0200 h1         1 S5F       0.074700
     35 H071       -22.3710     8.1090    17.9780 hc         1 S5F       0.068700
     36 H091       -23.0890     8.9850    15.5790 h1         1 S5F       0.058200
     37 H092       -24.4040     8.0280    14.8690 h1         1 S5F       0.058200
     38 H211       -20.5000     5.2360    11.3720 hn         1 S5F       0.460000
     39 O22        -19.9560     3.9770    13.4120 o          1 S5F      -0.539000
@<TRIPOS>BOND
     1     1    16 1   
     2     1    18 2   
     3     1    22 1   
     4     2    19 1   
     5     2    20 1   
     6     2    39 2   
     7     3     4 1   
     8     3    13 1   
     9     3    23 1   
    10     3    24 1   
    11     4     7 1   
    12     4    25 1   
    13     4    26 1   
    14     5    16 1   
    15     5    17 2   
    16     5    27 1   
    17     6    12 1   
    18     6    16 1   
    19     6    28 1   
    20     6    29 1   
    21     7    13 1   
    22     7    30 1   
    23     7    31 1   
    24     8     9 2   
    25     8    20 1   
    26     8    21 1   
    27     9    10 1   
    28     9    32 1   
    29    10    15 1   
    30    10    19 2   
    31    11    12 1   
    32    11    15 1   
    33    11    33 1   
    34    11    34 1   
    35    12    13 1   
    36    12    35 1   
    37    13    14 1   
    38    14    15 1   
    39    14    36 1   
    40    14    37 1   
    41    17    18 1   
    42    20    38 1   
@<TRIPOS>SUBSTRUCTURE
     1 S5F         1 TEMP              0 ****  ****    0 ROOT
