@<TRIPOS>MOLECULE
S5F
   39    42     1     0     0
SMALL
No Charge or Current Charge


@<TRIPOS>ATOM
      1 C18        -21.8970     4.8910    20.1510 cc         1 S5F       0.374400
      2 C20        -20.9720     4.7960    13.2910 c          1 S5F       0.711400
      3 C10        -25.1840     9.0890    17.5970 cy         1 S5F      -0.078900
      4 C11        -26.1830     8.0200    18.1400 cy         1 S5F      -0.091400
      5 C15        -21.1170     6.9190    20.4530 cc         1 S5F       0.374400
      6 C13        -23.3650     6.7760    19.2640 c3         1 S5F       0.095600
      7 C12        -25.6830     7.1150    16.9720 cy         1 S5F      -0.078900
      8 C02        -21.6350     6.7450    12.0660 cc         1 S5F       0.298600
      9 C03        -22.1860     7.2930    13.1830 cd         1 S5F      -0.471600
     10 C04        -22.1050     6.5220    14.3740 cd         1 S5F       0.791500
     11 C06        -22.5400     6.2560    16.8550 c5         1 S5F       0.234800
     12 C07        -23.1060     7.3280    17.8420 c5         1 S5F      -0.095700
     13 C08        -24.3200     7.9060    17.0260 cy         1 S5F      -0.089000
     14 C09        -23.5670     8.1100    15.6880 c5         1 S5F       0.238800
     15 N05        -22.6300     6.9850    15.5720 nh         1 S5F      -0.739600
     16 N14        -22.1750     6.2180    19.9250 na         1 S5F      -0.393000
     17 N16        -20.2440     6.0640    20.9620 nd         1 S5F      -0.354500
     18 N17        -20.7330     4.7940    20.7730 nd         1 S5F      -0.354500
     19 N19        -21.5230     5.3450    14.4090 nc         1 S5F      -0.763100
     20 N21        -21.0510     5.5210    12.1540 ns         1 S5F      -0.526600
     21 Cl01       -21.6160     7.5060    10.5120 cl         1 S5F      -0.153000
     22 H181       -22.5500     4.0810    19.8500 h5         1 S5F       0.062600
     23 H101       -24.6980     9.7150    18.3530 hc         1 S5F       0.057700
     24 H102       -25.6100     9.7470    16.8290 hc         1 S5F       0.057700
     25 H111       -27.2420     8.2990    18.1030 hc         1 S5F       0.054700
     26 H112       -25.9640     7.6470    19.1450 hc         1 S5F       0.054700
     27 H151       -21.0430     8.0000    20.4330 h5         1 S5F       0.062600
     28 H132       -23.7570     7.5870    19.8920 h1         1 S5F       0.067700
     29 H131       -24.1350     5.9950    19.2120 h1         1 S5F       0.067700
     30 H122       -26.2430     7.2450    16.0380 hc         1 S5F       0.057700
     31 H121       -25.6290     6.0420    17.1880 hc         1 S5F       0.057700
     32 H031       -22.6490     8.2680    13.1580 ha         1 S5F       0.214000
     33 H062       -23.1550     5.3450    16.8430 h1         1 S5F       0.074700
     34 H061       -21.5080     5.9740    17.1080 h1         1 S5F       0.074700
     35 H071       -22.3520     8.1130    17.9820 hc         1 S5F       0.068700
     36 H091       -23.0110     9.0580    15.6770 h1         1 S5F       0.058200
     37 H092       -24.2590     8.1450    14.8360 h1         1 S5F       0.058200
     38 H211       -20.6360     5.0960    11.3360 hn         1 S5F       0.460000
     39 O22        -20.4330     3.7080    13.3060 o          1 S5F      -0.539000
@<TRIPOS>BOND
     1     1    16 1   
     2     1    18 2   
     3     1    22 1   
     4     2    19 1   
     5     2    20 1   
     6     2    39 2   
     7     3     4 1   
     8     3    13 1   
     9     3    23 1   
    10     3    24 1   
    11     4     7 1   
    12     4    25 1   
    13     4    26 1   
    14     5    16 1   
    15     5    17 2   
    16     5    27 1   
    17     6    12 1   
    18     6    16 1   
    19     6    28 1   
    20     6    29 1   
    21     7    13 1   
    22     7    30 1   
    23     7    31 1   
    24     8     9 2   
    25     8    20 1   
    26     8    21 1   
    27     9    10 1   
    28     9    32 1   
    29    10    15 1   
    30    10    19 2   
    31    11    12 1   
    32    11    15 1   
    33    11    33 1   
    34    11    34 1   
    35    12    13 1   
    36    12    35 1   
    37    13    14 1   
    38    14    15 1   
    39    14    36 1   
    40    14    37 1   
    41    17    18 1   
    42    20    38 1   
@<TRIPOS>SUBSTRUCTURE
     1 S5F         1 TEMP              0 ****  ****    0 ROOT
