@<TRIPOS>MOLECULE
S5G
   23    23     1     0     0
SMALL
No Charge or Current Charge


@<TRIPOS>ATOM
      1 C10        -17.8110    94.4220   139.1980 c3         1 S5G      -0.105600
      2 C01        -15.9940    93.5450   136.5790 c3         1 S5G       0.078300
      3 C03        -14.5970    94.1440   138.5390 cs         1 S5G       0.368000
      4 C06        -15.9630    92.8890   140.2890 c5         1 S5G       0.259500
      5 C09        -16.8310    93.2260   139.0200 c5         1 S5G       0.115400
      6 C11        -17.6630    91.9950   138.5660 c3         1 S5G      -0.105600
      7 N02        -15.7700    93.6100   138.0440 n          1 S5G      -0.318800
      8 N07        -16.7400    93.0360   141.5560 n7         1 S5G      -0.603900
      9 O08        -15.9260    92.5690   142.7100 oh         1 S5G      -0.461300
     10 S04        -13.3430    94.8220   137.6590 s          1 S5G      -0.509400
     11 S05        -14.5950    94.1230   140.3040 ss         1 S5G      -0.236600
     12 H1         -18.6130    94.1900   139.9100 hc         1 S5G       0.055700
     13 H2         -17.2920    95.3190   139.5580 hc         1 S5G       0.055700
     14 H3         -18.2900    94.6860   138.2470 hc         1 S5G       0.055700
     15 H4         -17.0660    93.5090   136.3510 h1         1 S5G       0.059367
     16 H5         -15.5800    94.4340   136.0880 h1         1 S5G       0.059367
     17 H6         -15.5090    92.6490   136.1720 h1         1 S5G       0.059367
     18 H7         -15.5310    91.8840   140.1840 h2         1 S5G       0.107700
     19 H8         -18.3300    91.6560   139.3680 hc         1 S5G       0.055700
     20 H9         -18.2910    92.2150   137.6960 hc         1 S5G       0.055700
     21 H10        -17.0110    91.1530   138.3040 hc         1 S5G       0.055700
     22 H11        -16.9490    94.0320   141.7340 hn         1 S5G       0.436000
     23 H12        -16.5110    91.9680   143.2360 ho         1 S5G       0.464000
@<TRIPOS>BOND
     1     1     5 1   
     2     1    12 1   
     3     1    13 1   
     4     1    14 1   
     5     2     7 1   
     6     2    15 1   
     7     2    16 1   
     8     2    17 1   
     9     3     7 1   
    10     3    10 2   
    11     3    11 1   
    12     4     5 1   
    13     4     8 1   
    14     4    11 1   
    15     4    18 1   
    16     5     6 1   
    17     5     7 1   
    18     6    19 1   
    19     6    20 1   
    20     6    21 1   
    21     8     9 1   
    22     8    22 1   
    23     9    23 1   
@<TRIPOS>SUBSTRUCTURE
     1 S5G         1 TEMP              0 ****  ****    0 ROOT
