@<TRIPOS>MOLECULE
S5G
   23    23     1     0     0
SMALL
bcc


@<TRIPOS>ATOM
      1 C10        -17.6780    94.4610   139.1820 c3         1 S5G      -0.105600
      2 C01        -16.0430    93.5850   136.6370 c3         1 S5G       0.078300
      3 C03        -14.5920    94.0010   138.5190 cs         1 S5G       0.435000
      4 C06        -16.0330    92.8690   140.3210 c5         1 S5G       0.211600
      5 C09        -16.7980    93.2200   139.0310 c5         1 S5G       0.115400
      6 C11        -17.6380    92.0150   138.6290 c3         1 S5G      -0.105600
      7 N02        -15.7350    93.5080   138.0500 n          1 S5G      -0.385800
      8 N07        -16.8220    93.0570   141.4880 n7         1 S5G      -0.548700
      9 O08        -16.0570    92.7280   142.6140 oh         1 S5G      -0.422300
     10 S04        -13.3590    94.6630   137.6270 s          1 S5G      -0.509400
     11 S05        -14.4920    93.8950   140.2560 ss         1 S5G      -0.188700
     12 H1         -18.5120    94.2670   139.8560 hc         1 S5G       0.055700
     13 H2         -17.1170    95.3180   139.5580 hc         1 S5G       0.055700
     14 H3         -18.1020    94.7360   138.2160 hc         1 S5G       0.055700
     15 H4         -16.8790    92.9310   136.4090 h1         1 S5G       0.059367
     16 H5         -16.2930    94.6030   136.3350 h1         1 S5G       0.059367
     17 H6         -15.1820    93.2580   136.0580 h1         1 S5G       0.059367
     18 H7         -15.7110    91.8270   140.2820 h2         1 S5G       0.107700
     19 H8         -18.2470    91.7120   139.4810 hc         1 S5G       0.055700
     20 H9         -18.3180    92.2410   137.8090 hc         1 S5G       0.055700
     21 H10        -17.0110    91.1700   138.3420 hc         1 S5G       0.055700
     22 H11        -17.0710    94.0330   141.6070 hn         1 S5G       0.380800
     23 H12        -16.5160    91.9760   143.0050 ho         1 S5G       0.425000
@<TRIPOS>BOND
     1     1     5 1   
     2     1    12 1   
     3     1    13 1   
     4     1    14 1   
     5     2     7 1   
     6     2    15 1   
     7     2    16 1   
     8     2    17 1   
     9     3     7 1   
    10     3    10 2   
    11     3    11 1   
    12     4     5 1   
    13     4     8 1   
    14     4    11 1   
    15     4    18 1   
    16     5     6 1   
    17     5     7 1   
    18     6    19 1   
    19     6    20 1   
    20     6    21 1   
    21     8     9 1   
    22     8    22 1   
    23     9    23 1   
@<TRIPOS>SUBSTRUCTURE
     1 S5G         1 TEMP              0 ****  ****    0 ROOT
