@<TRIPOS>MOLECULE
S5H
   67    70     1     0     0
SMALL
abcg2


@<TRIPOS>ATOM
      1 C1           1.2820    -0.0190    -0.6000 c6         1 S5H      -0.067400
      2 C2           1.1380     0.3050    -2.0860 c6         1 S5H      -0.096400
      3 C3          -0.1650    -0.2520    -2.6310 c6         1 S5H       0.177300
      4 O3          -0.3670     0.1400    -4.0010 os         1 S5H      -0.462100
      5 C4          -1.3540     0.2540    -1.8390 c6         1 S5H      -0.073400
      6 C5          -1.1930    -0.0900    -0.3600 c6         1 S5H      -0.054700
      7 C6          -2.4280     0.2840     0.4480 c6         1 S5H      -0.069400
      8 C7          -2.3140    -0.2210     1.8790 c6         1 S5H      -0.069400
      9 C8          -1.0240     0.2370     2.5550 c6         1 S5H      -0.044700
     10 C9           0.2130    -0.0950     1.6960 c6         1 S5H      -0.047700
     11 C10          0.1060     0.4790     0.2590 c6         1 S5H      -0.030000
     12 C11          1.5140     0.2780     2.4190 c6         1 S5H      -0.069400
     13 C12          1.6190    -0.3020     3.8320 c6         1 S5H      -0.064400
     14 C13          0.4000     0.0540     4.6750 c5         1 S5H      -0.033000
     15 C14         -0.8540    -0.4120     3.9190 c5         1 S5H      -0.061700
     16 C15         -1.9760    -0.2910     4.9470 c5         1 S5H      -0.070400
     17 C16         -1.2940    -0.6490     6.2860 c5         1 S5H      -0.067400
     18 C17          0.2140    -0.7660     5.9860 c5         1 S5H      -0.169700
     19 C18          0.3830     1.5540     4.9820 c3         1 S5H      -0.083100
     20 C19          0.1150     2.0120     0.2780 c3         1 S5H      -0.081100
     21 C20          1.1250    -0.3560     7.1170 c          1 S5H       0.584100
     22 O20          0.7970     0.4570     7.9550 o          1 S5H      -0.529100
     23 C21          2.4660    -1.0350     7.1690 c3         1 S5H      -0.202100
     24 CH1          0.1910    -0.5710    -4.9770 c          1 S5H       0.583100
     25 OH1          0.8960    -1.5310    -4.7830 o          1 S5H      -0.514000
     26 CH2         -0.1930    -0.0330    -6.3300 c3         1 S5H      -0.107400
     27 CH3          0.5100    -0.7230    -7.4830 c3         1 S5H      -0.206400
     28 CH4          0.1070    -0.2130    -8.8790 c          1 S5H       0.718000
     29 OH4         -0.7500     0.6900    -8.9440 o          1 S5H      -0.737500
     30 OH5          0.6840    -0.7580    -9.8420 o          1 S5H      -0.737500
     31 H11          1.3770    -1.1050    -0.4790 hc         1 S5H       0.037200
     32 H12          2.2210     0.4100    -0.2450 hc         1 S5H       0.037200
     33 H21          1.9880    -0.1140    -2.6290 hc         1 S5H       0.056700
     34 H22          1.1660     1.3870    -2.2450 hc         1 S5H       0.056700
     35 H3          -0.1410    -1.3450    -2.5710 h1         1 S5H       0.055700
     36 H41         -2.2710    -0.2100    -2.2150 hc         1 S5H       0.052700
     37 H42         -1.4700     1.3340    -1.9740 hc         1 S5H       0.052700
     38 H5          -1.0970    -1.1850    -0.2980 hc         1 S5H       0.042700
     39 H61         -3.3170    -0.1430    -0.0260 hc         1 S5H       0.041700
     40 H62         -2.5690     1.3700     0.4400 hc         1 S5H       0.041700
     41 H71         -2.3500    -1.3180     1.8790 hc         1 S5H       0.035200
     42 H72         -3.1760     0.1140     2.4620 hc         1 S5H       0.035200
     43 H8          -1.0900     1.3240     2.6880 hc         1 S5H       0.052700
     44 H9           0.2210    -1.1910     1.5800 hc         1 S5H       0.041700
     45 H111         2.3710    -0.0810     1.8450 hc         1 S5H       0.042700
     46 H112         1.6200     1.3650     2.4630 hc         1 S5H       0.042700
     47 H121         1.7070    -1.3930     3.7730 hc         1 S5H       0.036200
     48 H122         2.5420     0.0610     4.2940 hc         1 S5H       0.036200
     49 H14         -0.7090    -1.4880     3.7340 hc         1 S5H       0.042700
     50 H151        -2.8130    -0.9520     4.7220 hc         1 S5H       0.044700
     51 H152        -2.3740     0.7270     4.9710 hc         1 S5H       0.044700
     52 H161        -1.6690    -1.5900     6.6910 hc         1 S5H       0.049200
     53 H162        -1.4840     0.1130     7.0400 hc         1 S5H       0.049200
     54 H17          0.4570    -1.8050     5.7330 hc         1 S5H       0.057700
     55 H181         0.2870     2.1570     4.0800 hc         1 S5H       0.038033
     56 H182        -0.4300     1.8380     5.6500 hc         1 S5H       0.038033
     57 H183         1.3160     1.8570     5.4630 hc         1 S5H       0.038033
     58 H191        -0.1230     2.4420    -0.6950 hc         1 S5H       0.032367
     59 H192        -0.5990     2.4300     0.9870 hc         1 S5H       0.032367
     60 H193         1.1010     2.3930     0.5510 hc         1 S5H       0.032367
     61 H211         3.1630    -0.5060     7.8160 hc         1 S5H       0.059033
     62 H212         2.3230    -2.0440     7.5640 hc         1 S5H       0.059033
     63 H213         2.9010    -1.1550     6.1770 hc         1 S5H       0.059033
     64 HH21        -1.2780    -0.1290    -6.4270 hc         1 S5H       0.072700
     65 HH22        -0.0010     1.0430    -6.3420 hc         1 S5H       0.072700
     66 HH31         1.5950    -0.6160    -7.3810 hc         1 S5H       0.032700
     67 HH32         0.3240    -1.8000    -7.4470 hc         1 S5H       0.032700
@<TRIPOS>BOND
     1     1     2 1   
     2     1    11 1   
     3     1    31 1   
     4     1    32 1   
     5     2     3 1   
     6     2    33 1   
     7     2    34 1   
     8     3     4 1   
     9     3     5 1   
    10     3    35 1   
    11     4    24 1   
    12     5     6 1   
    13     5    36 1   
    14     5    37 1   
    15     6     7 1   
    16     6    11 1   
    17     6    38 1   
    18     7     8 1   
    19     7    39 1   
    20     7    40 1   
    21     8     9 1   
    22     8    41 1   
    23     8    42 1   
    24     9    10 1   
    25     9    15 1   
    26     9    43 1   
    27    10    11 1   
    28    10    12 1   
    29    10    44 1   
    30    11    20 1   
    31    12    13 1   
    32    12    45 1   
    33    12    46 1   
    34    13    14 1   
    35    13    47 1   
    36    13    48 1   
    37    14    15 1   
    38    14    18 1   
    39    14    19 1   
    40    15    16 1   
    41    15    49 1   
    42    16    17 1   
    43    16    50 1   
    44    16    51 1   
    45    17    18 1   
    46    17    52 1   
    47    17    53 1   
    48    18    21 1   
    49    18    54 1   
    50    19    55 1   
    51    19    56 1   
    52    19    57 1   
    53    20    58 1   
    54    20    59 1   
    55    20    60 1   
    56    21    22 2   
    57    21    23 1   
    58    23    61 1   
    59    23    62 1   
    60    23    63 1   
    61    24    25 2   
    62    24    26 1   
    63    26    27 1   
    64    26    64 1   
    65    26    65 1   
    66    27    28 1   
    67    27    66 1   
    68    27    67 1   
    69    28    29 1   
    70    28    30 1   
@<TRIPOS>SUBSTRUCTURE
     1 S5H         1 TEMP              0 ****  ****    0 ROOT
