@<TRIPOS>MOLECULE
S5H
   67    70     1     0     0
SMALL
No Charge or Current Charge


@<TRIPOS>ATOM
      1 C1           1.5090     0.0010    -0.6180 c6         1 S5H      -0.067400
      2 C2           1.4040     0.3050    -2.1380 c6         1 S5H      -0.096400
      3 C3           0.1300    -0.3200    -2.7660 c6         1 S5H       0.177300
      4 O3          -0.0100     0.0670    -4.1470 os         1 S5H      -0.462100
      5 C4          -1.1380     0.1060    -1.9880 c6         1 S5H      -0.073400
      6 C5          -1.0080    -0.2330    -0.4750 c6         1 S5H      -0.054700
      7 C6          -2.3220     0.0670     0.2920 c6         1 S5H      -0.069400
      8 C7          -2.2270    -0.4310     1.7520 c6         1 S5H      -0.069400
      9 C8          -0.9990     0.1660     2.4930 c6         1 S5H      -0.044700
     10 C9           0.3320    -0.0950     1.6890 c6         1 S5H      -0.047700
     11 C10          0.2450     0.4460     0.2000 c6         1 S5H      -0.030000
     12 C11          1.5880     0.4120     2.4870 c6         1 S5H      -0.069400
     13 C12          1.6490    -0.1600     3.9340 c6         1 S5H      -0.064400
     14 C13          0.3450     0.1420     4.7280 c5         1 S5H      -0.033000
     15 C14         -0.8620    -0.4310     3.9240 c5         1 S5H      -0.061700
     16 C15         -2.0400    -0.2490     4.9240 c5         1 S5H      -0.070400
     17 C16         -1.3930    -0.5990     6.3090 c5         1 S5H      -0.067400
     18 C17          0.1440    -0.7460     6.0070 c5         1 S5H      -0.169700
     19 C18          0.2820     1.6860     5.0130 c3         1 S5H      -0.083100
     20 C19          0.1530     2.0190     0.1750 c3         1 S5H      -0.081100
     21 C20          1.0330    -0.2950     7.2040 c          1 S5H       0.584100
     22 O20          0.8410     0.7100     7.8780 o          1 S5H      -0.529100
     23 C21          2.2280    -1.1960     7.5180 c3         1 S5H      -0.202100
     24 CH1          0.8050    -0.4560    -5.1180 c          1 S5H       0.583100
     25 OH1          1.6360    -1.3330    -4.9250 o          1 S5H      -0.514000
     26 CH2          0.4780     0.1150    -6.5020 c3         1 S5H      -0.107400
     27 CH3         -0.5590    -0.7600    -7.2630 c3         1 S5H      -0.206400
     28 CH4         -0.8580    -0.1540    -8.6430 c          1 S5H       0.718000
     29 OH4         -1.7530     0.6720    -8.7260 o          1 S5H      -0.737500
     30 OH5         -0.1460    -0.4790    -9.5800 o          1 S5H      -0.737500
     31 H11          1.6750    -1.0780    -0.4850 hc         1 S5H       0.037200
     32 H12          2.4100     0.4960    -0.2340 hc         1 S5H       0.037200
     33 H21          2.2980    -0.0880    -2.6390 hc         1 S5H       0.056700
     34 H22          1.4130     1.3890    -2.3140 hc         1 S5H       0.056700
     35 H3           0.2060    -1.4170    -2.7140 h1         1 S5H       0.055700
     36 H41         -2.0030    -0.4240    -2.4080 hc         1 S5H       0.052700
     37 H42         -1.3360     1.1750    -2.1370 hc         1 S5H       0.052700
     38 H5          -0.8610    -1.3220    -0.4210 hc         1 S5H       0.042700
     39 H61         -3.1650    -0.4350    -0.2020 hc         1 S5H       0.041700
     40 H62         -2.5530     1.1410     0.2710 hc         1 S5H       0.041700
     41 H71         -2.1690    -1.5280     1.7570 hc         1 S5H       0.035200
     42 H72         -3.1530    -0.1680     2.2820 hc         1 S5H       0.035200
     43 H8          -1.1650     1.2450     2.5920 hc         1 S5H       0.052700
     44 H9           0.4440    -1.1870     1.6200 hc         1 S5H       0.041700
     45 H111         2.5100     0.1120     1.9740 hc         1 S5H       0.042700
     46 H112         1.6110     1.5070     2.5250 hc         1 S5H       0.042700
     47 H121         1.8070    -1.2460     3.8780 hc         1 S5H       0.036200
     48 H122         2.5220     0.2470     4.4630 hc         1 S5H       0.036200
     49 H14         -0.7200    -1.5060     3.7450 hc         1 S5H       0.042700
     50 H151        -2.8810    -0.9120     4.6900 hc         1 S5H       0.044700
     51 H152        -2.4330     0.7740     4.9100 hc         1 S5H       0.044700
     52 H161        -1.8020    -1.5270     6.7270 hc         1 S5H       0.049200
     53 H162        -1.6080     0.1910     7.0380 hc         1 S5H       0.049200
     54 H17          0.4050    -1.7840     5.7690 hc         1 S5H       0.057700
     55 H181         0.1650     2.2790     4.1000 hc         1 S5H       0.038033
     56 H182        -0.5470     1.9630     5.6730 hc         1 S5H       0.038033
     57 H183         1.2010     2.0350     5.4970 hc         1 S5H       0.038033
     58 H191         0.0050     2.4180    -0.8330 hc         1 S5H       0.032367
     59 H192        -0.6710     2.4080     0.7810 hc         1 S5H       0.032367
     60 H193         1.0720     2.4820     0.5510 hc         1 S5H       0.032367
     61 H211         2.8450    -0.8130     8.3380 hc         1 S5H       0.059033
     62 H212         1.8620    -2.2070     7.7280 hc         1 S5H       0.059033
     63 H213         2.8120    -1.3460     6.6030 hc         1 S5H       0.059033
     64 HH21         0.0410     1.1130    -6.3800 hc         1 S5H       0.072700
     65 HH22         1.4000     0.1700    -7.0920 hc         1 S5H       0.072700
     66 HH31        -0.0950    -1.7480    -7.3740 hc         1 S5H       0.032700
     67 HH32        -1.4630    -0.7650    -6.6430 hc         1 S5H       0.032700
@<TRIPOS>BOND
     1     1     2 1   
     2     1    11 1   
     3     1    31 1   
     4     1    32 1   
     5     2     3 1   
     6     2    33 1   
     7     2    34 1   
     8     3     4 1   
     9     3     5 1   
    10     3    35 1   
    11     4    24 1   
    12     5     6 1   
    13     5    36 1   
    14     5    37 1   
    15     6     7 1   
    16     6    11 1   
    17     6    38 1   
    18     7     8 1   
    19     7    39 1   
    20     7    40 1   
    21     8     9 1   
    22     8    41 1   
    23     8    42 1   
    24     9    10 1   
    25     9    15 1   
    26     9    43 1   
    27    10    11 1   
    28    10    12 1   
    29    10    44 1   
    30    11    20 1   
    31    12    13 1   
    32    12    45 1   
    33    12    46 1   
    34    13    14 1   
    35    13    47 1   
    36    13    48 1   
    37    14    15 1   
    38    14    18 1   
    39    14    19 1   
    40    15    16 1   
    41    15    49 1   
    42    16    17 1   
    43    16    50 1   
    44    16    51 1   
    45    17    18 1   
    46    17    52 1   
    47    17    53 1   
    48    18    21 1   
    49    18    54 1   
    50    19    55 1   
    51    19    56 1   
    52    19    57 1   
    53    20    58 1   
    54    20    59 1   
    55    20    60 1   
    56    21    22 2   
    57    21    23 1   
    58    23    61 1   
    59    23    62 1   
    60    23    63 1   
    61    24    25 2   
    62    24    26 1   
    63    26    27 1   
    64    26    64 1   
    65    26    65 1   
    66    27    28 1   
    67    27    66 1   
    68    27    67 1   
    69    28    29 1   
    70    28    30 1   
@<TRIPOS>SUBSTRUCTURE
     1 S5H         1 TEMP              0 ****  ****    0 ROOT
