@<TRIPOS>MOLECULE
S5I
   58    61     1     0     0
SMALL
abcg2


@<TRIPOS>ATOM
      1 C4         -13.3420    13.0850    20.2730 ca         1 S5I       0.465900
      2 C5         -13.8510    11.8000    19.8950 ca         1 S5I      -0.401600
      3 C6         -12.9340    10.9820    19.2390 ca         1 S5I       0.207900
      4 N1         -11.6800    11.3080    18.9700 nb         1 S5I      -0.291000
      5 N3         -12.0670    13.4190    20.0270 nb         1 S5I      -0.328000
      6 C2         -11.2970    12.5400    19.3940 ca         1 S5I       0.436900
      7 CAA         -2.1630    19.9030    20.9910 c3         1 S5I      -0.063100
      8 CAB         -2.7810    20.9090    20.0340 c3         1 S5I      -0.336400
      9 CAG         -5.5040    19.2330    18.8910 c6         1 S5I       0.222300
     10 CAH         -5.7210    17.7310    18.9910 c6         1 S5I       0.229300
     11 CAJ         -7.0450    18.3340    21.0010 c6         1 S5I       0.229300
     12 CAK         -5.7500    19.0310    21.3790 c6         1 S5I       0.222300
     13 CAL         -7.6170    16.3130    19.7040 ca         1 S5I       0.324000
     14 CAM         -7.2420    15.2700    18.8330 ca         1 S5I      -0.166000
     15 CAN         -8.0530    14.1620    18.6570 ca         1 S5I      -0.095500
     16 CAO         -9.2650    14.0230    19.3400 ca         1 S5I       0.258000
     17 CAP         -9.6390    15.0430    20.2190 ca         1 S5I      -0.095500
     18 CAQ         -8.8360    16.1610    20.3910 ca         1 S5I      -0.166000
     19 CAZ        -13.6250    15.2740    21.3250 cx         1 S5I       0.178500
     20 CBA        -13.4890    16.3900    20.3310 cx         1 S5I      -0.134900
     21 CBB        -14.6060    16.4070    21.3440 cx         1 S5I      -0.134900
     22 CBC        -15.2360    11.3920    20.1770 c          1 S5I       0.648700
     23 NAF         -5.2530    19.7900    20.2270 n3         1 S5I      -0.824500
     24 NAI         -6.8250    17.4260    19.8860 nh         1 S5I      -0.854400
     25 NAR        -10.0070    12.8500    19.1110 nu         1 S5I      -0.917900
     26 NAY        -14.1060    13.9980    20.8930 nu         1 S5I      -0.892100
     27 NBE        -15.5980    10.1140    19.9110 nt         1 S5I      -0.599000
     28 OAD         -4.6510    21.6510    21.7410 o          1 S5I      -0.547500
     29 OAE         -4.9820    22.1000    19.3160 o          1 S5I      -0.547500
     30 OBD        -16.0780    12.1850    20.6380 o          1 S5I      -0.662100
     31 H6         -13.2310     9.9980    18.8900 h4         1 S5I       0.009100
     32 HAC         -1.1170    19.7490    20.7240 hc         1 S5I       0.046700
     33 HAA         -2.2060    20.2570    22.0210 hc         1 S5I       0.046700
     34 HAB         -2.6720    18.9410    20.9300 hc         1 S5I       0.046700
     35 HAD         -2.3020    21.8880    20.0900 h1         1 S5I       0.098200
     36 HAE         -2.7340    20.5660    18.9990 h1         1 S5I       0.098200
     37 HAH         -4.6460    19.4150    18.2440 h1         1 S5I       0.062450
     38 HAG         -6.3770    19.7100    18.4390 h1         1 S5I       0.062450
     39 HAI         -5.9550    17.3710    17.9900 h1         1 S5I       0.050450
     40 HAJ         -4.7900    17.2450    19.3080 h1         1 S5I       0.050450
     41 HAK         -7.8080    19.0880    20.7660 h1         1 S5I       0.050450
     42 HAL         -7.3950    17.7700    21.8660 h1         1 S5I       0.050450
     43 HAN         -5.0100    18.2930    21.6990 h1         1 S5I       0.062450
     44 HAM         -5.9330    19.7140    22.2020 h1         1 S5I       0.062450
     45 HAO         -6.3040    15.3110    18.3010 ha         1 S5I       0.111500
     46 HAP         -7.7320    13.3770    17.9810 ha         1 S5I       0.129500
     47 HAQ        -10.5720    14.9730    20.7530 ha         1 S5I       0.129500
     48 HAR         -9.1760    16.9350    21.0630 ha         1 S5I       0.111500
     49 HAZ        -12.8870    15.2380    22.1180 h1         1 S5I       0.088700
     50 HBA        -12.6630    17.0770    20.4540 hc         1 S5I       0.079700
     51 H6L        -13.7490    16.1590    19.3060 hc         1 S5I       0.079700
     52 HBB        -14.5490    17.1070    22.1660 hc         1 S5I       0.079700
     53 H6M        -15.6060    16.1980    20.9890 hc         1 S5I       0.079700
     54 H6N         -9.5370    12.1310    18.5800 hn         1 S5I       0.510000
     55 HAY        -15.0620    13.7130    21.0730 hn         1 S5I       0.548000
     56 HBE        -16.5340     9.8360    20.1600 hn         1 S5I       0.314000
     57 H6O        -14.9450     9.3870    19.6800 hn         1 S5I       0.314000
     58 SAC         -4.5110    21.2210    20.3660 s6         1 S5I       1.263100
@<TRIPOS>BOND
     1     1     2 ar  
     2     1     5 ar  
     3     1    26 1   
     4     2     3 ar  
     5     2    22 1   
     6     3     4 ar  
     7     3    31 1   
     8     4     6 ar  
     9     5     6 ar  
    10     6    25 1   
    11     7     8 1   
    12     7    32 1   
    13     7    33 1   
    14     7    34 1   
    15     8    35 1   
    16     8    36 1   
    17     8    58 1   
    18     9    10 1   
    19     9    23 1   
    20     9    37 1   
    21     9    38 1   
    22    10    24 1   
    23    10    39 1   
    24    10    40 1   
    25    11    12 1   
    26    11    24 1   
    27    11    41 1   
    28    11    42 1   
    29    12    23 1   
    30    12    43 1   
    31    12    44 1   
    32    13    14 ar  
    33    13    18 ar  
    34    13    24 1   
    35    14    15 ar  
    36    14    45 1   
    37    15    16 ar  
    38    15    46 1   
    39    16    17 ar  
    40    16    25 1   
    41    17    18 ar  
    42    17    47 1   
    43    18    48 1   
    44    19    20 1   
    45    19    21 1   
    46    19    26 1   
    47    19    49 1   
    48    20    21 1   
    49    20    50 1   
    50    20    51 1   
    51    21    52 1   
    52    21    53 1   
    53    22    27 1   
    54    22    30 2   
    55    23    58 1   
    56    25    54 1   
    57    26    55 1   
    58    27    56 1   
    59    27    57 1   
    60    28    58 2   
    61    29    58 2   
@<TRIPOS>SUBSTRUCTURE
     1 S5I         1 TEMP              0 ****  ****    0 ROOT
