@<TRIPOS>MOLECULE
S5I
   58    61     1     0     0
SMALL
No Charge or Current Charge


@<TRIPOS>ATOM
      1 C4         -13.4300    13.0330    20.1530 ca         1 S5I       0.465900
      2 C5         -13.8600    11.7130    19.9430 ca         1 S5I      -0.401600
      3 C6         -12.8580    10.7840    19.6010 ca         1 S5I       0.207900
      4 N1         -11.5670    11.1390    19.4860 nb         1 S5I      -0.291000
      5 N3         -12.1430    13.3920    20.0380 nb         1 S5I      -0.328000
      6 C2         -11.2770    12.4240    19.7210 ca         1 S5I       0.436900
      7 CAA         -1.8020    19.9670    19.5120 c3         1 S5I      -0.063100
      8 CAB         -2.7580    21.1830    19.5790 c3         1 S5I      -0.336400
      9 CAG         -5.5670    19.4710    19.4050 c6         1 S5I       0.222300
     10 CAH         -6.0140    17.9930    19.1590 c6         1 S5I       0.229300
     11 CAJ         -6.8050    18.2230    21.5590 c6         1 S5I       0.229300
     12 CAK         -5.5080    19.0630    21.8570 c6         1 S5I       0.222300
     13 CAL         -7.5560    16.2250    20.1470 ca         1 S5I       0.324000
     14 CAM         -7.1930    15.2310    19.2170 ca         1 S5I      -0.166000
     15 CAN         -7.9930    14.0870    19.0350 ca         1 S5I      -0.095500
     16 CAO         -9.1800    13.9150    19.7690 ca         1 S5I       0.258000
     17 CAP         -9.5380    14.9000    20.7120 ca         1 S5I      -0.095500
     18 CAQ         -8.7360    16.0430    20.8950 ca         1 S5I      -0.166000
     19 CAZ        -14.0330    15.4170    20.7580 cx         1 S5I       0.178500
     20 CBA        -13.9480    16.3510    19.5770 cx         1 S5I      -0.134900
     21 CBB        -15.1370    16.4130    20.5040 cx         1 S5I      -0.134900
     22 CBC        -15.2920    11.2980    20.0660 c          1 S5I       0.648700
     23 NAF         -4.7780    19.5990    20.6610 n3         1 S5I      -0.824500
     24 NAI         -6.7410    17.3710    20.3200 nh         1 S5I      -0.854400
     25 NAR         -9.9400    12.7550    19.5600 nu         1 S5I      -0.917900
     26 NAY        -14.3200    14.0360    20.4890 nu         1 S5I      -0.892100
     27 NBE        -15.5920    10.0070    19.8380 nt         1 S5I      -0.599000
     28 OAD         -3.2340    20.9540    22.1690 o          1 S5I      -0.547500
     29 OAE         -4.9770    22.1510    20.7540 o          1 S5I      -0.547500
     30 OBD        -16.1910    12.0670    20.3610 o          1 S5I      -0.662100
     31 H6         -13.0770     9.7350    19.4120 h4         1 S5I       0.009100
     32 HAC         -1.0800    20.0940    18.6960 hc         1 S5I       0.046700
     33 HAA         -1.2390    19.8570    20.4480 hc         1 S5I       0.046700
     34 HAB         -2.3550    19.0370    19.3320 hc         1 S5I       0.046700
     35 HAD         -2.1940    22.1050    19.7550 h1         1 S5I       0.098200
     36 HAE         -3.3230    21.2850    18.6470 h1         1 S5I       0.098200
     37 HAH         -4.9780    19.7910    18.5340 h1         1 S5I       0.062450
     38 HAG         -6.4590    20.1140    19.4410 h1         1 S5I       0.062450
     39 HAI         -6.6480    17.9700    18.2610 h1         1 S5I       0.050450
     40 HAJ         -5.1140    17.4010    18.9350 h1         1 S5I       0.050450
     41 HAK         -7.6480    18.9240    21.4630 h1         1 S5I       0.050450
     42 HAL         -7.0100    17.6010    22.4420 h1         1 S5I       0.050450
     43 HAN         -4.8190    18.4330    22.4360 h1         1 S5I       0.062450
     44 HAM         -5.8080    19.8800    22.5310 h1         1 S5I       0.062450
     45 HAO         -6.2820    15.3330    18.6360 ha         1 S5I       0.111500
     46 HAP         -7.6900    13.3360    18.3110 ha         1 S5I       0.129500
     47 HAQ        -10.4280    14.7840    21.3210 ha         1 S5I       0.129500
     48 HAR         -9.0500    16.7880    21.6200 ha         1 S5I       0.111500
     49 HAZ        -13.3640    15.6010    21.6020 h1         1 S5I       0.088700
     50 HBA        -13.2190    17.1560    19.6280 hc         1 S5I       0.079700
     51 H6L        -14.0960    15.9330    18.5850 hc         1 S5I       0.079700
     52 HBB        -15.2110    17.2620    21.1790 hc         1 S5I       0.079700
     53 H6M        -16.0890    16.0440    20.1320 hc         1 S5I       0.079700
     54 H6N         -9.4220    11.9970    19.1160 hn         1 S5I       0.510000
     55 HAY        -15.2790    13.6720    20.5580 hn         1 S5I       0.548000
     56 HBE        -16.5520     9.7080    19.9170 hn         1 S5I       0.314000
     57 H6O        -14.8670     9.3520    19.5930 hn         1 S5I       0.314000
     58 SAC         -3.9740    21.0930    20.9100 s6         1 S5I       1.263100
@<TRIPOS>BOND
     1     1     2 ar  
     2     1     5 ar  
     3     1    26 1   
     4     2     3 ar  
     5     2    22 1   
     6     3     4 ar  
     7     3    31 1   
     8     4     6 ar  
     9     5     6 ar  
    10     6    25 1   
    11     7     8 1   
    12     7    32 1   
    13     7    33 1   
    14     7    34 1   
    15     8    35 1   
    16     8    36 1   
    17     8    58 1   
    18     9    10 1   
    19     9    23 1   
    20     9    37 1   
    21     9    38 1   
    22    10    24 1   
    23    10    39 1   
    24    10    40 1   
    25    11    12 1   
    26    11    24 1   
    27    11    41 1   
    28    11    42 1   
    29    12    23 1   
    30    12    43 1   
    31    12    44 1   
    32    13    14 ar  
    33    13    18 ar  
    34    13    24 1   
    35    14    15 ar  
    36    14    45 1   
    37    15    16 ar  
    38    15    46 1   
    39    16    17 ar  
    40    16    25 1   
    41    17    18 ar  
    42    17    47 1   
    43    18    48 1   
    44    19    20 1   
    45    19    21 1   
    46    19    26 1   
    47    19    49 1   
    48    20    21 1   
    49    20    50 1   
    50    20    51 1   
    51    21    52 1   
    52    21    53 1   
    53    22    27 1   
    54    22    30 2   
    55    23    58 1   
    56    25    54 1   
    57    26    55 1   
    58    27    56 1   
    59    27    57 1   
    60    28    58 2   
    61    29    58 2   
@<TRIPOS>SUBSTRUCTURE
     1 S5I         1 TEMP              0 ****  ****    0 ROOT
