@<TRIPOS>MOLECULE
S5J
   34    35     1     0     0
SMALL
No Charge or Current Charge


@<TRIPOS>ATOM
      1 N1         -20.0930    92.7470   141.2750 n3         1 S5J      -0.726600
      2 C4         -16.2590    93.0810   135.9000 ca         1 S5J      -0.131000
      3 C5         -17.1890    92.8550   136.9290 ca         1 S5J      -0.123000
      4 C6         -17.0400    93.4710   138.1900 ca         1 S5J       0.229000
      5 C7         -18.8610    94.3420   139.7180 c6         1 S5J       0.188800
      6 C8         -19.3960    94.0690   141.1610 c6         1 S5J       0.165300
      7 C10        -18.6520    91.8840   139.3590 c6         1 S5J       0.188800
      8 N          -18.0040    93.2250   139.2090 nh         1 S5J      -0.763400
      9 C          -14.6520    95.8010   139.9540 c3         1 S5J       0.144900
     10 C1         -15.9210    94.3310   138.4080 ca         1 S5J       0.135100
     11 C11        -20.7140    92.4980   142.6180 c3         1 S5J       0.243900
     12 C12        -19.7890    92.4080   143.7720 c1         1 S5J       0.251900
     13 C2         -14.9920    94.5510   137.3620 ca         1 S5J      -0.190000
     14 C3         -15.1640    93.9270   136.1160 ca         1 S5J      -0.087000
     15 C9         -19.1940    91.6440   140.8060 c6         1 S5J       0.165300
     16 N2         -19.0390    92.3400   144.6630 n1         1 S5J      -0.458000
     17 H2         -16.3920    92.6010   134.9330 ha         1 S5J       0.114000
     18 H3         -18.0370    92.2050   136.7350 ha         1 S5J       0.114000
     19 H4         -18.3030    95.2890   139.7270 h1         1 S5J       0.044450
     20 H5         -19.7200    94.4810   139.0460 h1         1 S5J       0.044450
     21 H6         -18.5440    94.1130   141.8550 h1         1 S5J       0.046450
     22 H7         -20.0780    94.8860   141.4390 h1         1 S5J       0.046450
     23 H8         -19.4900    91.7940   138.6520 h1         1 S5J       0.044450
     24 H9         -17.9330    91.0860   139.1200 h1         1 S5J       0.044450
     25 H10        -14.7220    96.1550   140.9890 h1         1 S5J       0.039700
     26 H11        -13.6950    95.2770   139.8380 h1         1 S5J       0.039700
     27 H12        -14.6590    96.6780   139.2940 h1         1 S5J       0.039700
     28 H13        -21.4360    93.2950   142.8430 h1         1 S5J       0.077200
     29 H14        -21.2900    91.5640   142.5900 h1         1 S5J       0.077200
     30 H15        -14.1300    95.1970   137.4980 ha         1 S5J       0.116000
     31 H16        -14.4450    94.1010   135.3170 ha         1 S5J       0.112000
     32 H17        -19.7270    90.6820   140.8230 h1         1 S5J       0.046450
     33 H18        -18.3300    91.5430   141.4800 h1         1 S5J       0.046450
     34 O          -15.7540    94.9260   139.6520 os         1 S5J      -0.328100
@<TRIPOS>BOND
     1     1     6 1   
     2     1    11 1   
     3     1    15 1   
     4     2     3 ar  
     5     2    14 ar  
     6     2    17 1   
     7     3     4 ar  
     8     3    18 1   
     9     4     8 1   
    10     4    10 ar  
    11     5     6 1   
    12     5     8 1   
    13     5    19 1   
    14     5    20 1   
    15     6    21 1   
    16     6    22 1   
    17     7     8 1   
    18     7    15 1   
    19     7    23 1   
    20     7    24 1   
    21     9    25 1   
    22     9    26 1   
    23     9    27 1   
    24     9    34 1   
    25    10    13 ar  
    26    10    34 1   
    27    11    12 1   
    28    11    28 1   
    29    11    29 1   
    30    12    16 3   
    31    13    14 ar  
    32    13    30 1   
    33    14    31 1   
    34    15    32 1   
    35    15    33 1   
@<TRIPOS>SUBSTRUCTURE
     1 S5J         1 TEMP              0 ****  ****    0 ROOT
