@<TRIPOS>MOLECULE
S5J
   34    35     1     0     0
SMALL
bcc


@<TRIPOS>ATOM
      1 N1         -20.0090    92.7670   141.1930 n3         1 S5J      -0.726600
      2 C4         -16.3640    93.0840   135.9950 ca         1 S5J      -0.149000
      3 C5         -17.2150    92.8390   137.0690 ca         1 S5J      -0.141000
      4 C6         -17.0240    93.4480   138.3040 ca         1 S5J       0.090600
      5 C7         -18.7360    94.2910   139.7860 c6         1 S5J       0.188800
      6 C8         -19.3220    94.0460   141.1630 c6         1 S5J       0.165300
      7 C10        -18.5570    91.9340   139.4290 c6         1 S5J       0.188800
      8 N          -17.8460    93.1970   139.4170 nh         1 S5J      -0.625000
      9 C          -14.6750    95.7370   139.8940 c3         1 S5J       0.121700
     10 C1         -15.9320    94.3320   138.4520 ca         1 S5J       0.135100
     11 C11        -20.7230    92.5280   142.4150 c3         1 S5J       0.243900
     12 C12        -19.8590    92.4310   143.6120 c1         1 S5J       0.162700
     13 C2         -15.0980    94.5930   137.3720 ca         1 S5J      -0.208000
     14 C3         -15.3130    93.9680   136.1470 ca         1 S5J      -0.105000
     15 C9         -19.1240    91.6810   140.8140 c6         1 S5J       0.165300
     16 N2         -19.1670    92.3690   144.5290 n1         1 S5J      -0.368800
     17 H2         -16.5370    92.5890   135.0480 ha         1 S5J       0.132000
     18 H3         -18.0440    92.1570   136.9340 ha         1 S5J       0.132000
     19 H4         -18.1890    95.2310   139.8040 h1         1 S5J       0.044450
     20 H5         -19.5500    94.3950   139.0520 h1         1 S5J       0.044450
     21 H6         -18.5120    94.0990   141.9080 h1         1 S5J       0.046450
     22 H7         -20.0360    94.8390   141.3940 h1         1 S5J       0.046450
     23 H8         -19.3830    91.9070   138.7020 h1         1 S5J       0.044450
     24 H9         -17.8680    91.1260   139.1780 h1         1 S5J       0.044450
     25 H10        -14.7210    96.0350   140.9390 h1         1 S5J       0.039700
     26 H11        -13.7170    95.2440   139.7100 h1         1 S5J       0.039700
     27 H12        -14.7330    96.6350   139.2720 h1         1 S5J       0.039700
     28 H13        -21.4420    93.3290   142.5940 h1         1 S5J       0.077200
     29 H14        -21.2910    91.5980   142.3450 h1         1 S5J       0.077200
     30 H15        -14.2600    95.2700   137.4700 ha         1 S5J       0.134000
     31 H16        -14.6460    94.1770   135.3210 ha         1 S5J       0.130000
     32 H17        -19.6910    90.7480   140.8030 h1         1 S5J       0.046450
     33 H18        -18.2930    91.5560   141.5280 h1         1 S5J       0.046450
     34 O          -15.7670    94.8680   139.6760 os         1 S5J      -0.304900
@<TRIPOS>BOND
     1     1     6 1   
     2     1    11 1   
     3     1    15 1   
     4     2     3 ar  
     5     2    14 ar  
     6     2    17 1   
     7     3     4 ar  
     8     3    18 1   
     9     4     8 1   
    10     4    10 ar  
    11     5     6 1   
    12     5     8 1   
    13     5    19 1   
    14     5    20 1   
    15     6    21 1   
    16     6    22 1   
    17     7     8 1   
    18     7    15 1   
    19     7    23 1   
    20     7    24 1   
    21     9    25 1   
    22     9    26 1   
    23     9    27 1   
    24     9    34 1   
    25    10    13 ar  
    26    10    34 1   
    27    11    12 1   
    28    11    28 1   
    29    11    29 1   
    30    12    16 3   
    31    13    14 ar  
    32    13    30 1   
    33    14    31 1   
    34    15    32 1   
    35    15    33 1   
@<TRIPOS>SUBSTRUCTURE
     1 S5J         1 TEMP              0 ****  ****    0 ROOT
