@<TRIPOS>MOLECULE
S5L
   64    68     1     0     0
SMALL
abcg2


@<TRIPOS>ATOM
      1 N1         -20.5350     8.5800    29.5230 ns         1 S5L      -0.136000
      2 N3         -19.5810     5.5600    27.5010 ns         1 S5L      -0.158000
      3 C4         -18.7740    10.0650    28.6400 ca         1 S5L      -0.115000
      4 C5         -16.8960     8.5360    29.9910 ca         1 S5L      -0.123500
      5 C6         -18.2390     8.2380    30.1080 ca         1 S5L      -0.115000
      6 C7         -19.1950     8.9910    29.4220 ca         1 S5L      -0.051000
      7 C8         -21.6650     9.2090    29.1310 c          1 S5L       0.593100
      8 C10        -22.5240     6.3720    28.1190 c6         1 S5L       0.170800
      9 C13        -18.2230     5.9380    27.5110 ca         1 S5L      -0.073000
     10 C15        -15.5600     6.5640    27.5510 ca         1 S5L       0.343900
     11 C17        -15.9150     8.4030    25.9390 ca         1 S5L      -0.079000
     12 C20        -18.6610     7.8350    25.9300 ca         1 S5L      -0.108000
     13 C21        -17.7970     7.0320    26.7090 ca         1 S5L      -0.024000
     14 C22        -23.6520     6.2290    30.2320 c6         1 S5L       0.223100
     15 C24        -23.9540     3.9400    31.2100 ca         1 S5L      -0.099000
     16 C26        -22.4970     4.1720    29.3080 ca         1 S5L      -0.050300
     17 C28        -22.8720     2.0170    30.3030 ca         1 S5L       0.127000
     18 O2         -14.9190    11.6210    27.7120 o          1 S5L      -0.593100
     19 C1         -14.3900    10.6990    28.3290 c          1 S5L       0.598100
     20 C          -12.8930    10.4980    28.3110 c3         1 S5L      -0.178100
     21 N          -15.0800     9.7770    29.0540 ns         1 S5L      -0.143000
     22 C2         -16.4680     9.5940    29.1830 ca         1 S5L      -0.051000
     23 C3         -17.4230    10.3640    28.5210 ca         1 S5L      -0.123500
     24 O1         -21.7240    10.3360    28.6480 o          1 S5L      -0.598100
     25 C9         -22.9330     8.3950    29.3860 c3         1 S5L       0.081800
     26 N2         -22.6810     6.9680    29.4390 n3         1 S5L      -0.744600
     27 C23        -23.3490     4.7520    30.2500 ca         1 S5L      -0.061300
     28 C27        -22.2610     2.7970    29.3390 ca         1 S5L      -0.088000
     29 C25        -23.7240     2.5740    31.2490 ca         1 S5L      -0.090000
     30 C11        -21.8190     5.0160    28.2570 c6         1 S5L      -0.092400
     31 C12        -20.3390     5.2430    28.5880 c          1 S5L       0.608100
     32 O          -19.8960     5.1910    29.7270 o          1 S5L      -0.565100
     33 C19        -18.1540     8.8680    25.1810 ca         1 S5L      -0.082000
     34 C18        -16.7720     9.1530    25.1770 ca         1 S5L      -0.098000
     35 C16        -16.4070     7.3350    26.7210 ca         1 S5L      -0.081000
     36 N4         -15.9800     5.5700    28.2980 nb         1 S5L      -0.651000
     37 C14        -17.2980     5.2550    28.2650 ca         1 S5L       0.319900
     38 H1         -20.7010     7.6590    29.9160 hn         1 S5L       0.184000
     39 H2         -20.0580     5.6140    26.6130 hn         1 S5L       0.152000
     40 H3         -19.4990    10.6520    28.1020 ha         1 S5L       0.138000
     41 H4         -16.1650     7.9250    30.5060 ha         1 S5L       0.132500
     42 H5         -18.5530     7.3940    30.7070 ha         1 S5L       0.138000
     43 H6         -21.9360     7.0380    27.4890 h1         1 S5L       0.048200
     44 H7         -23.4970     6.2270    27.6260 h1         1 S5L       0.048200
     45 H8         -14.5010     6.8010    27.5830 h4         1 S5L       0.014100
     46 H9         -14.8550     8.6230    25.9630 ha         1 S5L       0.115000
     47 H10        -19.7270     7.6550    25.9390 ha         1 S5L       0.108000
     48 H11        -23.6420     6.6190    31.2510 h1         1 S5L       0.050200
     49 H12        -24.6750     6.3740    29.8430 h1         1 S5L       0.050200
     50 H13        -24.6150     4.3860    31.9440 ha         1 S5L       0.119000
     51 H14        -12.6080    10.1450    27.3170 hc         1 S5L       0.062700
     52 H15        -12.4040    11.4570    28.4790 hc         1 S5L       0.062700
     53 H16        -12.5460     9.7770    29.0500 hc         1 S5L       0.062700
     54 H17        -14.5200     9.0820    29.5220 hn         1 S5L       0.147000
     55 H18        -17.1090    11.1770    27.8890 ha         1 S5L       0.132500
     56 H19        -23.3310     8.7220    30.3500 h1         1 S5L       0.068200
     57 H20        -23.6650     8.6800    28.6190 h1         1 S5L       0.068200
     58 H22        -21.6000     2.3450    28.6100 ha         1 S5L       0.130000
     59 H23        -24.1940     1.9520    31.9990 ha         1 S5L       0.134000
     60 H24        -21.8750     4.5020    27.2940 hc         1 S5L       0.069700
     61 H25        -18.8250     9.4840    24.5960 ha         1 S5L       0.118000
     62 H26        -16.3970     9.9770    24.5850 ha         1 S5L       0.124000
     63 H27        -17.6100     4.4210    28.8770 h4         1 S5L       0.038100
     64 CL         -22.5650     0.2900    30.3330 cl         1 S5L      -0.207000
@<TRIPOS>BOND
     1     1     6 1   
     2     1     7 1   
     3     1    38 1   
     4     2     9 1   
     5     2    31 1   
     6     2    39 1   
     7     3     6 ar  
     8     3    23 ar  
     9     3    40 1   
    10     4     5 ar  
    11     4    22 ar  
    12     4    41 1   
    13     5     6 ar  
    14     5    42 1   
    15     7    24 2   
    16     7    25 1   
    17     8    26 1   
    18     8    30 1   
    19     8    43 1   
    20     8    44 1   
    21     9    13 ar  
    22     9    37 ar  
    23    10    35 ar  
    24    10    36 ar  
    25    10    45 1   
    26    11    34 ar  
    27    11    35 ar  
    28    11    46 1   
    29    12    13 ar  
    30    12    33 ar  
    31    12    47 1   
    32    13    35 ar  
    33    14    26 1   
    34    14    27 1   
    35    14    48 1   
    36    14    49 1   
    37    15    27 ar  
    38    15    29 ar  
    39    15    50 1   
    40    16    27 ar  
    41    16    28 ar  
    42    16    30 1   
    43    17    28 ar  
    44    17    29 ar  
    45    17    64 1   
    46    18    19 2   
    47    19    20 1   
    48    19    21 1   
    49    20    51 1   
    50    20    52 1   
    51    20    53 1   
    52    21    22 1   
    53    21    54 1   
    54    22    23 ar  
    55    23    55 1   
    56    25    26 1   
    57    25    56 1   
    58    25    57 1   
    59    28    58 1   
    60    29    59 1   
    61    30    31 1   
    62    30    60 1   
    63    31    32 2   
    64    33    34 ar  
    65    33    61 1   
    66    34    62 1   
    67    36    37 ar  
    68    37    63 1   
@<TRIPOS>SUBSTRUCTURE
     1 S5L         1 TEMP              0 ****  ****    0 ROOT
