@<TRIPOS>MOLECULE
S5L
   64    68     1     0     0
SMALL
No Charge or Current Charge


@<TRIPOS>ATOM
      1 N1         -20.4770     8.7650    29.7330 ns         1 S5L      -0.136000
      2 N3         -19.5810     5.7070    27.7670 ns         1 S5L      -0.158000
      3 C4         -18.8150    10.1990    28.5510 ca         1 S5L      -0.115000
      4 C5         -16.7620     8.8220    29.8720 ca         1 S5L      -0.123500
      5 C6         -18.1040     8.4870    30.1150 ca         1 S5L      -0.115000
      6 C7         -19.1430     9.1730    29.4610 ca         1 S5L      -0.051000
      7 C8         -21.7130     9.2750    29.3590 c          1 S5L       0.593100
      8 C10        -22.4850     6.4270    28.2920 c6         1 S5L       0.170800
      9 C13        -18.1740     5.9370    27.7370 ca         1 S5L      -0.073000
     10 C15        -15.4320     6.3170    27.6880 ca         1 S5L       0.343900
     11 C17        -15.6640     8.0990    26.0330 ca         1 S5L      -0.079000
     12 C20        -18.4560     7.7490    26.0640 ca         1 S5L      -0.108000
     13 C21        -17.6410     6.9330    26.8820 ca         1 S5L      -0.024000
     14 C22        -23.7110     6.0810    30.3800 c6         1 S5L       0.223100
     15 C24        -24.2660     3.6800    31.0270 ca         1 S5L      -0.099000
     16 C26        -22.6910     4.0440    29.1990 ca         1 S5L      -0.050300
     17 C28        -23.2930     1.7780    29.8640 ca         1 S5L       0.127000
     18 O2         -14.9300    11.7900    27.1530 o          1 S5L      -0.593100
     19 C1         -14.3830    11.0010    27.9150 c          1 S5L       0.598100
     20 C          -12.8630    10.9200    28.0130 c3         1 S5L      -0.178100
     21 N          -15.0480    10.1130    28.7520 ns         1 S5L      -0.143000
     22 C2         -16.4290     9.8440    28.9640 ca         1 S5L      -0.051000
     23 C3         -17.4710    10.5320    28.3050 ca         1 S5L      -0.123500
     24 O1         -21.8790    10.3130    28.7230 o          1 S5L      -0.598100
     25 C9         -22.8930     8.3720    29.8080 c3         1 S5L       0.081800
     26 N2         -22.6720     6.8930    29.6870 n3         1 S5L      -0.744600
     27 C23        -23.5430     4.5640    30.2010 ca         1 S5L      -0.061300
     28 C27        -22.5710     2.6500    29.0340 ca         1 S5L      -0.088000
     29 C25        -24.1390     2.2900    30.8600 ca         1 S5L      -0.090000
     30 C11        -21.8900     5.0020    28.3070 c6         1 S5L      -0.092400
     31 C12        -20.3920     5.0510    28.6870 c          1 S5L       0.608100
     32 O          -19.9600     4.5480    29.7190 o          1 S5L      -0.565100
     33 C19        -17.8750     8.7310    25.2420 ca         1 S5L      -0.082000
     34 C18        -16.4820     8.9060    25.2250 ca         1 S5L      -0.098000
     35 C16        -16.2410     7.1190    26.8630 ca         1 S5L      -0.081000
     36 N4         -15.9270     5.3610    28.5050 nb         1 S5L      -0.651000
     37 C14        -17.2680     5.1820    28.5240 ca         1 S5L       0.319900
     38 H1         -20.5480     7.9050    30.2620 hn         1 S5L       0.184000
     39 H2         -20.0770     6.0880    26.9720 hn         1 S5L       0.152000
     40 H3         -19.5850    10.7410    28.0110 ha         1 S5L       0.138000
     41 H4         -15.9750     8.2730    30.3860 ha         1 S5L       0.132500
     42 H5         -18.3350     7.6850    30.8130 ha         1 S5L       0.138000
     43 H6         -21.8250     7.1010    27.7270 h1         1 S5L       0.048200
     44 H7         -23.4500     6.4140    27.7640 h1         1 S5L       0.048200
     45 H8         -14.3490     6.4410    27.6970 h4         1 S5L       0.014100
     46 H9         -14.5850     8.2410    26.0170 ha         1 S5L       0.115000
     47 H10        -19.5370     7.6430    26.0600 ha         1 S5L       0.108000
     48 H11        -23.7040     6.3090    31.4550 h1         1 S5L       0.050200
     49 H12        -24.7100     6.3540    30.0060 h1         1 S5L       0.050200
     50 H13        -24.9280     4.0710    31.7970 ha         1 S5L       0.119000
     51 H14        -12.5480     9.8870    27.8220 hc         1 S5L       0.062700
     52 H15        -12.3570    11.6270    27.3450 hc         1 S5L       0.062700
     53 H16        -12.5630    11.0640    29.0570 hc         1 S5L       0.062700
     54 H17        -14.4320     9.5400    29.3140 hn         1 S5L       0.147000
     55 H18        -17.2630    11.3210    27.5910 ha         1 S5L       0.132500
     56 H19        -23.0790     8.6290    30.8590 h1         1 S5L       0.068200
     57 H20        -23.7790     8.6770    29.2360 h1         1 S5L       0.068200
     58 H22        -21.9160     2.2430    28.2680 ha         1 S5L       0.130000
     59 H23        -24.6980     1.6110    31.4990 ha         1 S5L       0.134000
     60 H24        -21.9270     4.6970    27.2530 hc         1 S5L       0.069700
     61 H25        -18.5080     9.3590    24.6200 ha         1 S5L       0.118000
     62 H26        -16.0370     9.6680    24.5900 ha         1 S5L       0.124000
     63 H27        -17.6100     4.3840    29.1790 h4         1 S5L       0.038100
     64 Cl         -23.1360     0.0380    29.6550 cl         1 S5L      -0.207000
@<TRIPOS>BOND
     1     1     6 1   
     2     1     7 1   
     3     1    38 1   
     4     2     9 1   
     5     2    31 1   
     6     2    39 1   
     7     3     6 ar  
     8     3    23 ar  
     9     3    40 1   
    10     4     5 ar  
    11     4    22 ar  
    12     4    41 1   
    13     5     6 ar  
    14     5    42 1   
    15     7    24 2   
    16     7    25 1   
    17     8    26 1   
    18     8    30 1   
    19     8    43 1   
    20     8    44 1   
    21     9    13 ar  
    22     9    37 ar  
    23    10    35 ar  
    24    10    36 ar  
    25    10    45 1   
    26    11    34 ar  
    27    11    35 ar  
    28    11    46 1   
    29    12    13 ar  
    30    12    33 ar  
    31    12    47 1   
    32    13    35 ar  
    33    14    26 1   
    34    14    27 1   
    35    14    48 1   
    36    14    49 1   
    37    15    27 ar  
    38    15    29 ar  
    39    15    50 1   
    40    16    27 ar  
    41    16    28 ar  
    42    16    30 1   
    43    17    28 ar  
    44    17    29 ar  
    45    17    64 1   
    46    18    19 2   
    47    19    20 1   
    48    19    21 1   
    49    20    51 1   
    50    20    52 1   
    51    20    53 1   
    52    21    22 1   
    53    21    54 1   
    54    22    23 ar  
    55    23    55 1   
    56    25    26 1   
    57    25    56 1   
    58    25    57 1   
    59    28    58 1   
    60    29    59 1   
    61    30    31 1   
    62    30    60 1   
    63    31    32 2   
    64    33    34 ar  
    65    33    61 1   
    66    34    62 1   
    67    36    37 ar  
    68    37    63 1   
@<TRIPOS>SUBSTRUCTURE
     1 S5L         1 TEMP              0 ****  ****    0 ROOT
