@<TRIPOS>MOLECULE
S5M
   53    56     1     0     0
SMALL
abcg2


@<TRIPOS>ATOM
      1 N1           0.3830    18.0350     5.2840 nb         1 S5M      -0.192000
      2 N3           6.8000    23.7230     8.8220 ns         1 S5M      -0.506900
      3 C4           0.6580    20.3110     6.1080 ca         1 S5M      -0.184800
      4 C5           2.0410    20.1020     6.1410 cp         1 S5M       0.232500
      5 C6           3.0060    21.1280     6.5700 cp         1 S5M      -0.156500
      6 C7           4.1780    20.7530     7.2250 ca         1 S5M      -0.072500
      7 C8           5.0940    21.7040     7.6450 ca         1 S5M      -0.113500
      8 C13         10.2360    22.7910     9.5990 ca         1 S5M      -0.071000
      9 C15         10.4980    22.0340    11.8880 ca         1 S5M      -0.040300
     10 C17         10.8520    20.2500    13.6020 c3         1 S5M      -0.083433
     11 C20          9.1080    22.0890    12.0130 ca         1 S5M      -0.120000
     12 C21          8.2990    22.4870    10.9640 ca         1 S5M      -0.071000
     13 C22          3.7140    23.4300     6.7340 ca         1 S5M      -0.113500
     14 C24          1.6980    17.9610     5.3820 ca         1 S5M       0.139900
     15 C1          -0.1060    19.2090     5.6580 ca         1 S5M       0.122500
     16 C11          8.0380    23.2650     8.5570 c          1 S5M       0.614700
     17 C12          8.8540    22.8510     9.7380 ca         1 S5M      -0.157600
     18 C14         11.0410    22.3960    10.6570 ca         1 S5M      -0.120000
     19 C18         11.2260    22.6620    14.1800 c3         1 S5M      -0.083433
     20 C19         12.8250    21.4560    12.7080 c3         1 S5M      -0.083433
     21 C2          -1.5110    20.8430     6.1790 cc         1 S5M      -0.160100
     22 C23          2.7890    22.4850     6.3270 ca         1 S5M      -0.072500
     23 C3          -0.2710    21.3430     6.4430 cd         1 S5M      -0.213200
     24 C9           4.8770    23.0560     7.4020 ca         1 S5M      -0.087300
     25 N2          -1.4100    19.5610     5.7050 na         1 S5M      -0.321400
     26 N4           2.5320    18.9160     5.7860 nb         1 S5M      -0.210000
     27 O1           8.4850    23.1920     7.4210 o          1 S5M      -0.596100
     28 H1           6.5050    23.8290     9.7780 hn         1 S5M       0.316500
     29 H2           4.3700    19.7060     7.4200 ha         1 S5M       0.125000
     30 H3           5.9800    21.3770     8.1730 ha         1 S5M       0.116000
     31 H4           6.4220    24.4520     6.9250 h1         1 S5M       0.064700
     32 H5           5.3240    24.9990     8.1680 h1         1 S5M       0.064700
     33 H6          10.6930    23.0610     8.6560 ha         1 S5M       0.122000
     34 H7          11.4600    19.9320    14.4510 hc         1 S5M       0.036811
     35 H8           9.8160    20.2890    13.9410 hc         1 S5M       0.036811
     36 H9          10.9220    19.4800    12.8320 hc         1 S5M       0.036811
     37 H10          8.6350    21.8080    12.9460 ha         1 S5M       0.116500
     38 H11          7.2260    22.4790    11.1160 ha         1 S5M       0.122000
     39 H12          3.5250    24.4770     6.5270 ha         1 S5M       0.116000
     40 H13          2.1520    17.0180     5.0990 h5         1 S5M       0.049100
     41 H14         12.1110    22.3740    10.5010 ha         1 S5M       0.116500
     42 H15         11.8000    22.3600    15.0580 hc         1 S5M       0.036811
     43 H16         11.6090    23.6270    13.8430 hc         1 S5M       0.036811
     44 H17         10.1910    22.8070    14.4960 hc         1 S5M       0.036811
     45 H18         13.3870    21.1190    13.5810 hc         1 S5M       0.036811
     46 H19         12.9780    20.7200    11.9160 hc         1 S5M       0.036811
     47 H20         13.2670    22.3990    12.3840 hc         1 S5M       0.036811
     48 H21         -2.4780    21.3030     6.3020 h4         1 S5M       0.218000
     49 H22          1.9060    22.8120     5.7930 ha         1 S5M       0.125000
     50 H23         -0.0630    22.3220     6.8430 ha         1 S5M       0.212000
     51 H24         -2.1830    18.9770     5.4280 hn         1 S5M       0.364000
     52 C10          5.8660    24.1260     7.8040 c3         1 S5M       0.146300
     53 C16         11.3490    21.6030    13.0760 c3         1 S5M      -0.003700
@<TRIPOS>BOND
     1     1    14 ar  
     2     1    15 ar  
     3     2    16 1   
     4     2    28 1   
     5     2    52 1   
     6     3     4 ar  
     7     3    15 ar  
     8     3    23 1   
     9     4     5 1   
    10     4    26 ar  
    11     5     6 ar  
    12     5    22 ar  
    13     6     7 ar  
    14     6    29 1   
    15     7    24 ar  
    16     7    30 1   
    17     8    17 ar  
    18     8    18 ar  
    19     8    33 1   
    20     9    11 ar  
    21     9    18 ar  
    22     9    53 1   
    23    10    34 1   
    24    10    35 1   
    25    10    36 1   
    26    10    53 1   
    27    11    12 ar  
    28    11    37 1   
    29    12    17 ar  
    30    12    38 1   
    31    13    22 ar  
    32    13    24 ar  
    33    13    39 1   
    34    14    26 ar  
    35    14    40 1   
    36    15    25 1   
    37    16    17 1   
    38    16    27 2   
    39    18    41 1   
    40    19    42 1   
    41    19    43 1   
    42    19    44 1   
    43    19    53 1   
    44    20    45 1   
    45    20    46 1   
    46    20    47 1   
    47    20    53 1   
    48    21    23 2   
    49    21    25 1   
    50    21    48 1   
    51    22    49 1   
    52    23    50 1   
    53    24    52 1   
    54    25    51 1   
    55    31    52 1   
    56    32    52 1   
@<TRIPOS>SUBSTRUCTURE
     1 S5M         1 TEMP              0 ****  ****    0 ROOT
