@<TRIPOS>MOLECULE
S5M
   53    56     1     0     0
SMALL
No Charge or Current Charge


@<TRIPOS>ATOM
      1 N1          -0.5770    18.9880     5.3910 nb         1 S5M      -0.192000
      2 N3           7.5300    22.9180     7.6870 ns         1 S5M      -0.506900
      3 C4           0.7700    20.3880     6.7580 ca         1 S5M      -0.184800
      4 C5           1.8180    20.3700     5.8040 cp         1 S5M       0.232500
      5 C6           3.1170    21.1000     5.9630 cp         1 S5M      -0.156500
      6 C7           4.3360    20.5290     5.5160 ca         1 S5M      -0.072500
      7 C8           5.5550    21.2140     5.6590 ca         1 S5M      -0.113500
      8 C13         10.4370    23.4880     9.9820 ca         1 S5M      -0.071000
      9 C15         10.1930    22.1930    12.0540 ca         1 S5M      -0.040300
     10 C17         10.8620    20.1900    13.4530 c3         1 S5M      -0.083433
     11 C20          8.9700    21.6990    11.5480 ca         1 S5M      -0.120000
     12 C21          8.4860    22.0880    10.2870 ca         1 S5M      -0.071000
     13 C22          4.3860    23.0790     6.6820 ca         1 S5M      -0.113500
     14 C24          0.4630    18.9920     4.5240 ca         1 S5M       0.139900
     15 C1          -0.3990    19.6990     6.5190 ca         1 S5M       0.122500
     16 C11          8.7290    23.4380     8.1170 c          1 S5M       0.614700
     17 C12          9.2150    22.9920     9.4820 ca         1 S5M      -0.157600
     18 C14         10.9190    23.0980    11.2430 ca         1 S5M      -0.120000
     19 C18          9.6350    22.1320    14.5230 c3         1 S5M      -0.083433
     20 C19         12.0460    22.3680    13.8590 c3         1 S5M      -0.083433
     21 C2          -0.6280    20.6850     8.5980 cc         1 S5M      -0.160100
     22 C23          3.1680    22.3940     6.5400 ca         1 S5M      -0.072500
     23 C3           0.6110    20.9870     8.0650 cd         1 S5M      -0.213200
     24 C9           5.5880    22.4930     6.2440 ca         1 S5M      -0.087300
     25 N2          -1.2370    19.8850     7.6090 na         1 S5M      -0.321400
     26 N4           1.6440    19.6380     4.6790 nb         1 S5M      -0.210000
     27 O1           9.3620    24.2200     7.4200 o          1 S5M      -0.596100
     28 H1           7.0530    22.2770     8.3060 hn         1 S5M       0.316500
     29 H2           4.3400    19.5400     5.0640 ha         1 S5M       0.125000
     30 H3           6.4760    20.7480     5.3160 ha         1 S5M       0.116000
     31 H4           7.5930    22.9510     5.5940 h1         1 S5M       0.064700
     32 H5           6.7370    24.3160     6.3430 h1         1 S5M       0.064700
     33 H6          11.0270    24.1860     9.3900 ha         1 S5M       0.122000
     34 H7          11.2420    19.8380    14.4200 hc         1 S5M       0.036811
     35 H8           9.9130    19.6740    13.2650 hc         1 S5M       0.036811
     36 H9          11.5730    19.8820    12.6770 hc         1 S5M       0.036811
     37 H10          8.3770    21.0020    12.1330 ha         1 S5M       0.116500
     38 H11          7.5380    21.6730     9.9540 ha         1 S5M       0.122000
     39 H12          4.3950    24.0710     7.1310 ha         1 S5M       0.116000
     40 H13          0.3390    18.4150     3.6100 h5         1 S5M       0.049100
     41 H14         11.8660    23.5160    11.5680 ha         1 S5M       0.116500
     42 H15          9.9720    21.8500    15.5290 hc         1 S5M       0.036811
     43 H16          9.4670    23.2160    14.5150 hc         1 S5M       0.036811
     44 H17          8.6720    21.6400    14.3490 hc         1 S5M       0.036811
     45 H18         12.3600    22.0200    14.8510 hc         1 S5M       0.036811
     46 H19         12.8380    22.0970    13.1500 hc         1 S5M       0.036811
     47 H20         11.9750    23.4620    13.9020 hc         1 S5M       0.036811
     48 H21         -1.0960    20.9470     9.5450 h4         1 S5M       0.218000
     49 H22          2.2510    22.8820     6.8630 ha         1 S5M       0.125000
     50 H23          1.3660    21.5740     8.5850 ha         1 S5M       0.212000
     51 H24         -2.1670    19.4830     7.6760 hn         1 S5M       0.364000
     52 C10          6.9070    23.2320     6.4040 c3         1 S5M       0.146300
     53 C16         10.6860    21.7330    13.4530 c3         1 S5M      -0.003700
@<TRIPOS>BOND
     1     1    14 ar  
     2     1    15 ar  
     3     2    16 1   
     4     2    28 1   
     5     2    52 1   
     6     3     4 ar  
     7     3    15 ar  
     8     3    23 1   
     9     4     5 1   
    10     4    26 ar  
    11     5     6 ar  
    12     5    22 ar  
    13     6     7 ar  
    14     6    29 1   
    15     7    24 ar  
    16     7    30 1   
    17     8    17 ar  
    18     8    18 ar  
    19     8    33 1   
    20     9    11 ar  
    21     9    18 ar  
    22     9    53 1   
    23    10    34 1   
    24    10    35 1   
    25    10    36 1   
    26    10    53 1   
    27    11    12 ar  
    28    11    37 1   
    29    12    17 ar  
    30    12    38 1   
    31    13    22 ar  
    32    13    24 ar  
    33    13    39 1   
    34    14    26 ar  
    35    14    40 1   
    36    15    25 1   
    37    16    17 1   
    38    16    27 2   
    39    18    41 1   
    40    19    42 1   
    41    19    43 1   
    42    19    44 1   
    43    19    53 1   
    44    20    45 1   
    45    20    46 1   
    46    20    47 1   
    47    20    53 1   
    48    21    23 2   
    49    21    25 1   
    50    21    48 1   
    51    22    49 1   
    52    23    50 1   
    53    24    52 1   
    54    25    51 1   
    55    31    52 1   
    56    32    52 1   
@<TRIPOS>SUBSTRUCTURE
     1 S5M         1 TEMP              0 ****  ****    0 ROOT
