@<TRIPOS>MOLECULE
S5N
   42    44     1     0     0
SMALL
abcg2


@<TRIPOS>ATOM
      1 C1          -1.0660     5.4200    31.5060 ca         1 S5N      -0.164300
      2 C2          -1.0750     6.7770    31.1790 ca         1 S5N      -0.041000
      3 C3           0.0750     7.4220    30.7600 ca         1 S5N      -0.172000
      4 C4           1.2860     6.7230    30.6710 ca         1 S5N       0.114600
      5 C5           1.3030     5.3360    30.9610 ca         1 S5N      -0.131800
      6 C6           0.1170     4.7170    31.3680 ca         1 S5N      -0.019000
      7 C7           2.5510     4.6180    30.8690 cc         1 S5N       0.030600
      8 C8           3.6670     5.3020    30.5320 cd         1 S5N      -0.302200
      9 C10          2.6040     3.1480    31.1550 c3         1 S5N      -0.062900
     10 C12         -2.2950     4.7540    32.0690 c3         1 S5N       0.271100
     11 C13          0.0340     5.4690    34.5400 ca         1 S5N      -0.268500
     12 C14          0.9190     4.4080    34.7210 ca         1 S5N      -0.010500
     13 C15          2.2790     4.6330    34.5730 ca         1 S5N      -0.132500
     14 C16          2.7460     5.9040    34.2420 ca         1 S5N      -0.053000
     15 C17          1.8540     6.9550    34.0740 ca         1 S5N      -0.132500
     16 C18          0.4880     6.7430    34.2270 ca         1 S5N      -0.010500
     17 C9           3.6820     6.7190    30.2490 c          1 S5N       0.561200
     18 N1          -2.0390     4.1790    33.4040 n7         1 S5N      -0.911300
     19 N2           2.4600     7.3750    30.3240 n          1 S5N      -0.284000
     20 O1          -1.9530     4.3580    35.8570 o          1 S5N      -0.554500
     21 O2          -2.3860     6.4340    34.5540 o          1 S5N      -0.554500
     22 O3           4.7210     7.3250    29.9530 o          1 S5N      -0.558000
     23 S1          -1.7060     5.1620    34.6780 sy         1 S5N       1.172600
     24 H2          -1.9910     7.3450    31.2820 ha         1 S5N       0.126000
     25 H3           0.0320     8.4760    30.5380 ha         1 S5N       0.126000
     26 H6           0.1360     3.6680    31.6280 ha         1 S5N       0.124000
     27 H8           4.6260     4.8060    30.4610 ha         1 S5N       0.209000
     28 H11A         2.0840     9.3560    30.9250 h1         1 S5N       0.057033
     29 H11B         3.4350     9.1210    29.7960 h1         1 S5N       0.057033
     30 H11C         1.7620     9.0180    29.2100 h1         1 S5N       0.057033
     31 H10A         1.9440     2.5950    30.4840 hc         1 S5N       0.053033
     32 H10B         3.6190     2.7720    31.0350 hc         1 S5N       0.053033
     33 H10C         2.2740     2.9410    32.1750 hc         1 S5N       0.053033
     34 H12B        -3.1230     5.4650    32.0980 h1         1 S5N       0.058700
     35 H12A        -2.5980     3.9090    31.4490 h1         1 S5N       0.058700
     36 H14          0.5470     3.4210    34.9560 ha         1 S5N       0.132500
     37 H15          2.9750     3.8150    34.7020 ha         1 S5N       0.118000
     38 H16          3.8070     6.0700    34.1070 ha         1 S5N       0.120000
     39 H17          2.2150     7.9400    33.8070 ha         1 S5N       0.118000
     40 H18         -0.2170     7.5470    34.0800 ha         1 S5N       0.132500
     41 H1          -2.6870     3.4520    33.6870 hn         1 S5N       0.492000
     42 C11          2.4290     8.8090    30.0470 c3         1 S5N       0.069300
@<TRIPOS>BOND
     1     1     2 ar  
     2     1     6 ar  
     3     1    10 1   
     4     2     3 ar  
     5     2    24 1   
     6     3     4 ar  
     7     3    25 1   
     8     4     5 ar  
     9     4    19 1   
    10     5     6 ar  
    11     5     7 1   
    12     6    26 1   
    13     7     8 2   
    14     7     9 1   
    15     8    17 1   
    16     8    27 1   
    17     9    31 1   
    18     9    32 1   
    19     9    33 1   
    20    10    18 1   
    21    10    34 1   
    22    10    35 1   
    23    11    12 ar  
    24    11    16 ar  
    25    11    23 1   
    26    12    13 ar  
    27    12    36 1   
    28    13    14 ar  
    29    13    37 1   
    30    14    15 ar  
    31    14    38 1   
    32    15    16 ar  
    33    15    39 1   
    34    16    40 1   
    35    17    19 1   
    36    17    22 2   
    37    18    23 1   
    38    18    41 1   
    39    19    42 1   
    40    20    23 2   
    41    21    23 2   
    42    28    42 1   
    43    29    42 1   
    44    30    42 1   
@<TRIPOS>SUBSTRUCTURE
     1 S5N         1 TEMP              0 ****  ****    0 ROOT
