@<TRIPOS>MOLECULE
S5N
   42    44     1     0     0
SMALL
No Charge or Current Charge


@<TRIPOS>ATOM
      1 C1          -1.0500     5.4410    31.5690 ca         1 S5N      -0.164300
      2 C2          -1.0550     6.8180    31.3070 ca         1 S5N      -0.041000
      3 C3           0.1170     7.4540    30.8740 ca         1 S5N      -0.172000
      4 C4           1.3110     6.7220    30.6690 ca         1 S5N       0.114600
      5 C5           1.3290     5.3370    30.9590 ca         1 S5N      -0.131800
      6 C6           0.1350     4.7090    31.3840 ca         1 S5N      -0.019000
      7 C7           2.5700     4.5520    30.8700 cc         1 S5N       0.030600
      8 C8           3.7100     5.2740    30.5860 cd         1 S5N      -0.302200
      9 C10          2.6240     3.0620    31.1080 c3         1 S5N      -0.062900
     10 C12         -2.3020     4.7510    32.0970 c3         1 S5N       0.271100
     11 C13         -0.0230     5.4400    34.5610 ca         1 S5N      -0.268500
     12 C14          0.9360     4.4130    34.6730 ca         1 S5N      -0.010500
     13 C15          2.3020     4.7050    34.5060 ca         1 S5N      -0.132500
     14 C16          2.7140     6.0190    34.2260 ca         1 S5N      -0.053000
     15 C17          1.7600     7.0450    34.1210 ca         1 S5N      -0.132500
     16 C18          0.3930     6.7600    34.2900 ca         1 S5N      -0.010500
     17 C9           3.7710     6.7150    30.3050 c          1 S5N       0.561200
     18 N1          -2.0590     4.0970    33.3950 n7         1 S5N      -0.911300
     19 N2           2.5360     7.3910    30.3200 n          1 S5N      -0.284000
     20 O1          -1.9390     4.1270    35.8580 o          1 S5N      -0.554500
     21 O2          -2.6070     6.2460    34.5900 o          1 S5N      -0.554500
     22 O3           4.8350     7.2680    30.0590 o          1 S5N      -0.558000
     23 S1          -1.7730     5.0510    34.7340 sy         1 S5N       1.172600
     24 H2          -1.9590     7.4050    31.4630 ha         1 S5N       0.126000
     25 H3           0.0790     8.5270    30.7150 ha         1 S5N       0.126000
     26 H6           0.1230     3.6490    31.6200 ha         1 S5N       0.124000
     27 H8           4.6760     4.7880    30.5330 ha         1 S5N       0.209000
     28 H11A         2.3250     9.4590    30.7470 h1         1 S5N       0.057033
     29 H11B         3.4360     9.1130    29.3970 h1         1 S5N       0.057033
     30 H11C         1.6900     8.9520    29.1520 h1         1 S5N       0.057033
     31 H10A         1.9410     2.5340    30.4320 hc         1 S5N       0.053033
     32 H10B         3.6300     2.6630    30.9360 hc         1 S5N       0.053033
     33 H10C         2.3430     2.8190    32.1390 hc         1 S5N       0.053033
     34 H12B        -3.1260     5.4760    32.1660 h1         1 S5N       0.058700
     35 H12A        -2.6100     4.0000    31.3570 h1         1 S5N       0.058700
     36 H14          0.6250     3.3890    34.8750 ha         1 S5N       0.132500
     37 H15          3.0390     3.9110    34.5860 ha         1 S5N       0.118000
     38 H16          3.7700     6.2410    34.0890 ha         1 S5N       0.120000
     39 H17          2.0780     8.0610    33.9000 ha         1 S5N       0.118000
     40 H18         -0.3350     7.5630    34.1940 ha         1 S5N       0.132500
     41 H1          -2.9230     3.6480    33.6900 hn         1 S5N       0.492000
     42 C11          2.4990     8.8100    29.8790 c3         1 S5N       0.069300
@<TRIPOS>BOND
     1     1     2 ar  
     2     1     6 ar  
     3     1    10 1   
     4     2     3 ar  
     5     2    24 1   
     6     3     4 ar  
     7     3    25 1   
     8     4     5 ar  
     9     4    19 1   
    10     5     6 ar  
    11     5     7 1   
    12     6    26 1   
    13     7     8 2   
    14     7     9 1   
    15     8    17 1   
    16     8    27 1   
    17     9    31 1   
    18     9    32 1   
    19     9    33 1   
    20    10    18 1   
    21    10    34 1   
    22    10    35 1   
    23    11    12 ar  
    24    11    16 ar  
    25    11    23 1   
    26    12    13 ar  
    27    12    36 1   
    28    13    14 ar  
    29    13    37 1   
    30    14    15 ar  
    31    14    38 1   
    32    15    16 ar  
    33    15    39 1   
    34    16    40 1   
    35    17    19 1   
    36    17    22 2   
    37    18    23 1   
    38    18    41 1   
    39    19    42 1   
    40    20    23 2   
    41    21    23 2   
    42    28    42 1   
    43    29    42 1   
    44    30    42 1   
@<TRIPOS>SUBSTRUCTURE
     1 S5N         1 TEMP              0 ****  ****    0 ROOT
