@<TRIPOS>MOLECULE
S5O
   37    40     1     0     0
SMALL
abcg2


@<TRIPOS>ATOM
      1 C18        -47.6270   -27.6220     4.7380 ca         1 S5O       0.084900
      2 C16        -46.2340   -28.8260     6.0060 ca         1 S5O       0.206000
      3 C14        -44.6860   -30.1450     6.6330 cc         1 S5O       0.427700
      4 C12        -45.6530   -29.3640     4.8380 ca         1 S5O      -0.219200
      5 C11        -46.1410   -28.9680     3.5930 ca         1 S5O       0.339900
      6 C20        -44.2770   -28.8710     2.1310 c3         1 S5O       0.199800
      7 C02        -43.3380   -32.3460     2.7200 c          1 S5O       0.721000
      8 C03        -43.5720   -31.7930     1.2990 c6         1 S5O      -0.176700
      9 C04        -42.7600   -30.5330     0.9420 c6         1 S5O      -0.054400
     10 C05        -43.6280   -29.2800     0.8000 c6         1 S5O      -0.051700
     11 C06        -44.6560   -29.4680    -0.3230 c6         1 S5O      -0.055400
     12 C07        -45.3320   -30.8580    -0.2590 c6         1 S5O      -0.058400
     13 C08        -45.0940   -31.5750     1.0750 c6         1 S5O      -0.044700
     14 C09        -45.8180   -30.9070     2.2420 c3         1 S5O       0.197800
     15 N10        -45.6170   -29.4490     2.3670 nh         1 S5O      -0.744300
     16 N13        -44.6580   -30.2050     5.2790 na         1 S5O      -0.279600
     17 N15        -45.6110   -29.3340     7.1200 nd         1 S5O      -0.690700
     18 N17        -47.2370   -27.9420     5.9670 nb         1 S5O      -0.144000
     19 N19        -47.1380   -28.0840     3.5730 nb         1 S5O      -0.191000
     20 H181       -48.4370   -26.9040     4.6570 h5         1 S5O       0.033100
     21 H141       -43.9980   -30.7200     7.2350 h5         1 S5O       0.061800
     22 H202       -43.5800   -29.1060     2.9430 h1         1 S5O       0.040700
     23 H201       -44.4280   -27.7890     2.1320 h1         1 S5O       0.040700
     24 H031       -43.2880   -32.5960     0.6160 hc         1 S5O       0.041700
     25 H041       -42.2440   -30.6970    -0.0080 hc         1 S5O       0.035200
     26 H042       -41.9940   -30.3620     1.6980 hc         1 S5O       0.035200
     27 H051       -42.9690   -28.4500     0.5300 hc         1 S5O       0.026700
     28 H062       -44.1480   -29.3540    -1.2840 hc         1 S5O       0.028200
     29 H061       -45.4050   -28.6760    -0.2640 hc         1 S5O       0.028200
     30 H072       -46.4060   -30.7660    -0.4340 hc         1 S5O       0.024700
     31 H071       -44.9380   -31.4960    -1.0540 hc         1 S5O       0.024700
     32 H081       -45.5430   -32.5700     1.0130 hc         1 S5O       0.051700
     33 H091       -46.8930   -31.0500     2.0990 h1         1 S5O       0.040700
     34 H092       -45.5580   -31.4390     3.1630 h1         1 S5O       0.040700
     35 H131       -44.0030   -30.7640     4.6930 hn         1 S5O       0.451000
     36 O01        -43.5780   -33.5610     2.9000 o          1 S5O      -0.736500
     37 O21        -42.9560   -31.5390     3.6240 o          1 S5O      -0.736500
@<TRIPOS>BOND
     1     1    18 ar  
     2     1    19 ar  
     3     1    20 1   
     4     2     4 ar  
     5     2    17 1   
     6     2    18 ar  
     7     3    16 1   
     8     3    17 2   
     9     3    21 1   
    10     4     5 ar  
    11     4    16 1   
    12     5    15 1   
    13     5    19 ar  
    14     6    10 1   
    15     6    15 1   
    16     6    22 1   
    17     6    23 1   
    18     7     8 1   
    19     7    36 1   
    20     7    37 1   
    21     8     9 1   
    22     8    13 1   
    23     8    24 1   
    24     9    10 1   
    25     9    25 1   
    26     9    26 1   
    27    10    11 1   
    28    10    27 1   
    29    11    12 1   
    30    11    28 1   
    31    11    29 1   
    32    12    13 1   
    33    12    30 1   
    34    12    31 1   
    35    13    14 1   
    36    13    32 1   
    37    14    15 1   
    38    14    33 1   
    39    14    34 1   
    40    16    35 1   
@<TRIPOS>SUBSTRUCTURE
     1 S5O         1 TEMP              0 ****  ****    0 ROOT
