@<TRIPOS>MOLECULE
S5O
   37    40     1     0     0
SMALL
No Charge or Current Charge


@<TRIPOS>ATOM
      1 C18        -47.0670   -27.2490     4.9690 ca         1 S5O       0.084900
      2 C16        -46.0570   -28.8720     6.2320 ca         1 S5O       0.206000
      3 C14        -44.8760   -30.6160     6.7990 cc         1 S5O       0.427700
      4 C12        -45.6090   -29.4450     5.0750 ca         1 S5O      -0.219200
      5 C11        -45.9140   -28.8850     3.8250 ca         1 S5O       0.339900
      6 C20        -44.8080   -28.5590     1.6100 c3         1 S5O       0.199800
      7 C02        -43.1640   -32.5680     2.5910 c          1 S5O       0.721000
      8 C03        -43.5570   -31.6880     1.3760 c6         1 S5O      -0.176700
      9 C04        -42.8760   -30.2790     1.3700 c6         1 S5O      -0.054400
     10 C05        -43.7520   -29.2000     0.6560 c6         1 S5O      -0.051700
     11 C06        -44.4150   -29.7920    -0.6170 c6         1 S5O      -0.055400
     12 C07        -45.3600   -30.9790    -0.2880 c6         1 S5O      -0.058400
     13 C08        -45.0990   -31.5840     1.1250 c6         1 S5O      -0.044700
     14 C09        -45.8910   -30.8140     2.2350 c3         1 S5O       0.197800
     15 N10        -45.4610   -29.4400     2.6110 nh         1 S5O      -0.744300
     16 N13        -44.8550   -30.5290     5.4170 na         1 S5O      -0.279600
     17 N15        -45.6090   -29.6100     7.3300 nd         1 S5O      -0.690700
     18 N17        -46.8100   -27.7540     6.2010 nb         1 S5O      -0.144000
     19 N19        -46.6520   -27.7530     3.7790 nb         1 S5O      -0.191000
     20 H181       -47.6670   -26.3420     4.9300 h5         1 S5O       0.033100
     21 H141       -44.3530   -31.3950     7.3430 h5         1 S5O       0.061800
     22 H202       -44.2790   -27.7680     2.1580 h1         1 S5O       0.040700
     23 H201       -45.5740   -28.0580     1.0020 h1         1 S5O       0.040700
     24 H031       -43.1580   -32.2210     0.5010 hc         1 S5O       0.041700
     25 H041       -41.9020   -30.3560     0.8690 hc         1 S5O       0.035200
     26 H042       -42.6560   -29.9490     2.3950 hc         1 S5O       0.035200
     27 H051       -43.0990   -28.3740     0.3410 hc         1 S5O       0.026700
     28 H062       -43.6260   -30.1360    -1.3010 hc         1 S5O       0.028200
     29 H061       -44.9660   -29.0120    -1.1600 hc         1 S5O       0.028200
     30 H072       -46.4070   -30.6560    -0.3690 hc         1 S5O       0.024700
     31 H071       -45.2300   -31.7580    -1.0520 hc         1 S5O       0.024700
     32 H081       -45.5180   -32.6000     1.1280 hc         1 S5O       0.051700
     33 H091       -46.9410   -30.7700     1.9160 h1         1 S5O       0.040700
     34 H092       -45.8820   -31.4490     3.1290 h1         1 S5O       0.040700
     35 H131       -44.3380   -31.1490     4.7860 hn         1 S5O       0.451000
     36 O01        -42.5560   -33.6050     2.3690 o          1 S5O      -0.736500
     37 O21        -43.4590   -32.1940     3.7170 o          1 S5O      -0.736500
@<TRIPOS>BOND
     1     1    18 ar  
     2     1    19 ar  
     3     1    20 1   
     4     2     4 ar  
     5     2    17 1   
     6     2    18 ar  
     7     3    16 1   
     8     3    17 2   
     9     3    21 1   
    10     4     5 ar  
    11     4    16 1   
    12     5    15 1   
    13     5    19 ar  
    14     6    10 1   
    15     6    15 1   
    16     6    22 1   
    17     6    23 1   
    18     7     8 1   
    19     7    36 1   
    20     7    37 1   
    21     8     9 1   
    22     8    13 1   
    23     8    24 1   
    24     9    10 1   
    25     9    25 1   
    26     9    26 1   
    27    10    11 1   
    28    10    27 1   
    29    11    12 1   
    30    11    28 1   
    31    11    29 1   
    32    12    13 1   
    33    12    30 1   
    34    12    31 1   
    35    13    14 1   
    36    13    32 1   
    37    14    15 1   
    38    14    33 1   
    39    14    34 1   
    40    16    35 1   
@<TRIPOS>SUBSTRUCTURE
     1 S5O         1 TEMP              0 ****  ****    0 ROOT
