@<TRIPOS>MOLECULE
S5S
    9     6     1     0     0
SMALL
No Charge or Current Charge


@<TRIPOS>ATOM
      1 S1           2.6080     1.8920     1.1290 s          1 S5S      -0.454500
      2 S2          -0.4430     1.3020    -1.1720 sh         1 S5S       0.341000
      3 S3           0.5930    -0.4540    -1.6560 ss         1 S5S      -0.055000
      4 S4           1.0110    -1.4790     0.1240 sh         1 S5S       0.341000
      5 S5          -2.7550    -1.1850     0.6800 s          1 S5S      -0.454500
      6 HS1          3.5350     2.6500     1.7640 hs         1 S5S       0.090000
      7 HS5         -4.0070    -1.4960     1.0950 hs         1 S5S       0.090000
      8 HS2         -0.6170     1.8090    -2.4100 hs         1 S5S       0.051000
      9 HS4         -0.2470    -1.6750     0.5710 hs         1 S5S       0.051000
@<TRIPOS>BOND
     1     1     6 1   
     2     2     3 1   
     3     2     8 1   
     4     3     4 1   
     5     4     9 1   
     6     5     7 1   
@<TRIPOS>SUBSTRUCTURE
     1 S5S         1 TEMP              0 ****  ****    0 ROOT
