@<TRIPOS>MOLECULE
S5S
    9     6     1     0     0
SMALL
abcg2


@<TRIPOS>ATOM
      1 S1           1.2410     2.0570    -0.0060 s          1 S5S      -0.454500
      2 S2          -0.6390     0.6900     0.0360 sh         1 S5S       0.341000
      3 S3           0.2430    -1.0690    -0.9310 ss         1 S5S      -0.055000
      4 S4           2.1460    -1.1320    -0.2970 sh         1 S5S       0.341000
      5 S5          -2.6940    -0.5580    -0.2520 s          1 S5S      -0.454500
      6 HS1          1.7610     1.5850     1.1310 hs         1 S5S       0.090000
      7 HS5         -3.3090     0.2350     0.6350 hs         1 S5S       0.090000
      8 HS2         -1.0320     1.4110    -1.0160 hs         1 S5S       0.051000
      9 HS4          1.9610    -1.8550     0.8230 hs         1 S5S       0.051000
@<TRIPOS>BOND
     1     1     6 1   
     2     2     3 1   
     3     2     8 1   
     4     3     4 1   
     5     4     9 1   
     6     5     7 1   
@<TRIPOS>SUBSTRUCTURE
     1 S5S         1 TEMP              0 ****  ****    0 ROOT
