@<TRIPOS>MOLECULE
S5U
   32    33     1     0     0
SMALL
No Charge or Current Charge


@<TRIPOS>ATOM
      1 C18        -47.4560   -28.6300     4.1270 cc         1 S5U      -0.170200
      2 C17        -48.4320   -28.5860     5.1090 cd         1 S5U      -0.180100
      3 C15        -46.5030   -29.2080     6.1080 ca         1 S5U       0.116500
      4 C13        -44.2910   -29.6950     6.4380 ca         1 S5U       0.121900
      5 C11        -44.9340   -29.2300     4.2640 ca         1 S5U       0.139500
      6 C19        -46.2420   -29.0420     4.7690 ca         1 S5U      -0.165800
      7 C01        -46.1950   -30.8700     2.1220 c3         1 S5U       0.098300
      8 C03        -45.2400   -29.2810     0.3890 c3         1 S5U       0.103000
      9 C04        -46.4230   -29.5540    -0.5800 c3         1 S5U      -0.063400
     10 C05        -47.7220   -28.7490    -0.2980 c3         1 S5U      -0.203400
     11 C06        -47.4790   -27.2300    -0.3860 c          1 S5U       0.711000
     12 C09        -44.5740   -29.0850     2.7940 c          1 S5U       0.512600
     13 N02        -45.4660   -29.6090     1.8240 n          1 S5U      -0.398800
     14 N12        -43.9450   -29.5520     5.1360 nb         1 S5U      -0.189000
     15 N14        -45.5260   -29.5430     6.9720 nb         1 S5U      -0.208000
     16 N16        -47.8460   -28.9550     6.3450 na         1 S5U      -0.340400
     17 O07        -47.2080   -26.6250     0.6390 o          1 S5U      -0.739500
     18 O08        -47.5430   -26.7010    -1.4850 o          1 S5U      -0.739500
     19 O10        -43.5590   -28.4840     2.4500 o          1 S5U      -0.549100
     20 H181       -47.6020   -28.3670     3.0790 ha         1 S5U       0.246000
     21 H171       -49.4830   -28.3130     5.0230 h4         1 S5U       0.214000
     22 H131       -43.4920   -29.9590     7.1280 h5         1 S5U       0.039100
     23 H013       -45.8880   -31.2850     3.0900 h1         1 S5U       0.031367
     24 H012       -47.2750   -30.6830     2.1420 h1         1 S5U       0.031367
     25 H011       -45.9750   -31.6210     1.3540 h1         1 S5U       0.031367
     26 H032       -44.3730   -29.8600     0.0440 h1         1 S5U       0.061200
     27 H031       -44.9670   -28.2210     0.3090 h1         1 S5U       0.061200
     28 H042       -46.6580   -30.6240    -0.5880 hc         1 S5U       0.022700
     29 H041       -46.0850   -29.3170    -1.5970 hc         1 S5U       0.022700
     30 H052       -48.4180   -29.0620    -1.0860 hc         1 S5U       0.015700
     31 H051       -48.0560   -29.0290     0.7080 hc         1 S5U       0.015700
     32 H161       -48.3110   -29.0100     7.2470 hn         1 S5U       0.352000
@<TRIPOS>BOND
     1     1     2 2   
     2     1     6 1   
     3     1    20 1   
     4     2    16 1   
     5     2    21 1   
     6     3     6 ar  
     7     3    15 ar  
     8     3    16 1   
     9     4    14 ar  
    10     4    15 ar  
    11     4    22 1   
    12     5     6 ar  
    13     5    12 1   
    14     5    14 ar  
    15     7    13 1   
    16     7    23 1   
    17     7    24 1   
    18     7    25 1   
    19     8     9 1   
    20     8    13 1   
    21     8    26 1   
    22     8    27 1   
    23     9    10 1   
    24     9    28 1   
    25     9    29 1   
    26    10    11 1   
    27    10    30 1   
    28    10    31 1   
    29    11    17 1   
    30    11    18 1   
    31    12    13 1   
    32    12    19 2   
    33    16    32 1   
@<TRIPOS>SUBSTRUCTURE
     1 S5U         1 TEMP              0 ****  ****    0 ROOT
