@<TRIPOS>MOLECULE
S5U
   32    33     1     0     0
SMALL
abcg2


@<TRIPOS>ATOM
      1 C18        -47.8000   -28.6620     4.2090 cc         1 S5U      -0.170200
      2 C17        -48.5640   -28.6760     5.3420 cd         1 S5U      -0.180100
      3 C15        -46.4990   -29.1780     6.0270 ca         1 S5U       0.116500
      4 C13        -44.3150   -29.6190     6.0900 ca         1 S5U       0.121900
      5 C11        -45.2160   -29.1450     4.0300 ca         1 S5U       0.139500
      6 C19        -46.4650   -28.9800     4.6190 ca         1 S5U      -0.165800
      7 C01        -45.9510   -31.0970     2.1040 c3         1 S5U       0.098300
      8 C03        -45.2020   -29.6150     0.2490 c3         1 S5U       0.103000
      9 C04        -46.5360   -29.5860    -0.4970 c3         1 S5U      -0.063400
     10 C05        -47.4780   -28.4870    -0.0190 c3         1 S5U      -0.203400
     11 C06        -46.9960   -27.0400    -0.2430 c          1 S5U       0.711000
     12 C09        -44.9750   -28.8820     2.5620 c          1 S5U       0.512600
     13 N02        -45.3540   -29.8310     1.6910 n          1 S5U      -0.398800
     14 N12        -44.1470   -29.4560     4.7690 nb         1 S5U      -0.189000
     15 N14        -45.4480   -29.4990     6.7770 nb         1 S5U      -0.208000
     16 N16        -47.7820   -28.9940     6.4380 na         1 S5U      -0.340400
     17 O07        -47.4440   -26.1730     0.5550 o          1 S5U      -0.739500
     18 O08        -46.2320   -26.8180    -1.2170 o          1 S5U      -0.739500
     19 O10        -44.4480   -27.8100     2.2520 o          1 S5U      -0.549100
     20 H181       -48.1460   -28.4440     3.2130 ha         1 S5U       0.246000
     21 H171       -49.6170   -28.4880     5.4680 h4         1 S5U       0.214000
     22 H131       -43.4280   -29.8800     6.6560 h5         1 S5U       0.039100
     23 H013       -45.6490   -31.3520     3.1160 h1         1 S5U       0.031367
     24 H012       -47.0410   -31.0580     2.0580 h1         1 S5U       0.031367
     25 H011       -45.6010   -31.8810     1.4330 h1         1 S5U       0.031367
     26 H032       -44.5740   -30.4190    -0.1450 h1         1 S5U       0.061200
     27 H031       -44.6780   -28.6730     0.1200 h1         1 S5U       0.061200
     28 H042       -47.0320   -30.5550    -0.4010 hc         1 S5U       0.022700
     29 H041       -46.3120   -29.4510    -1.5560 hc         1 S5U       0.022700
     30 H052       -48.4360   -28.5810    -0.5430 hc         1 S5U       0.015700
     31 H051       -47.7020   -28.6160     1.0410 hc         1 S5U       0.015700
     32 H161       -48.1000   -29.0350     7.3940 hn         1 S5U       0.352000
@<TRIPOS>BOND
     1     1     2 2   
     2     1     6 1   
     3     1    20 1   
     4     2    16 1   
     5     2    21 1   
     6     3     6 ar  
     7     3    15 ar  
     8     3    16 1   
     9     4    14 ar  
    10     4    15 ar  
    11     4    22 1   
    12     5     6 ar  
    13     5    12 1   
    14     5    14 ar  
    15     7    13 1   
    16     7    23 1   
    17     7    24 1   
    18     7    25 1   
    19     8     9 1   
    20     8    13 1   
    21     8    26 1   
    22     8    27 1   
    23     9    10 1   
    24     9    28 1   
    25     9    29 1   
    26    10    11 1   
    27    10    30 1   
    28    10    31 1   
    29    11    17 1   
    30    11    18 1   
    31    12    13 1   
    32    12    19 2   
    33    16    32 1   
@<TRIPOS>SUBSTRUCTURE
     1 S5U         1 TEMP              0 ****  ****    0 ROOT
