@<TRIPOS>MOLECULE
S5V
   25    25     1     0     0
SMALL
abcg2


@<TRIPOS>ATOM
      1 CAI          8.7530     6.8380     7.7940 c3         1 S5V      -0.084100
      2 CAH          7.4230     7.1310     8.4990 c3         1 S5V      -0.019400
      3 CAJ          7.5400     8.3700     9.3960 c3         1 S5V      -0.084100
      4 CAE          6.9220     5.9280     9.2730 ca         1 S5V      -0.041300
      5 CAD          5.7040     5.3400     8.9460 ca         1 S5V      -0.139000
      6 CAC          5.2280     4.2330     9.6450 ca         1 S5V       0.137100
      7 OAK          4.0180     3.7270     9.2470 oh         1 S5V      -0.546100
      8 CAB          5.9570     3.6750    10.7000 ca         1 S5V      -0.168300
      9 CAA          5.4440     2.4790    11.4550 c3         1 S5V      -0.046800
     10 CAG          7.1770     4.2750    11.0180 ca         1 S5V      -0.072000
     11 CAF          7.6580     5.3780    10.3260 ca         1 S5V      -0.139000
     12 H1           9.0650     7.6970     7.1950 hc         1 S5V       0.035533
     13 H2           9.5430     6.6310     8.5200 hc         1 S5V       0.035533
     14 H3           8.6660     5.9730     7.1330 hc         1 S5V       0.035533
     15 H4           6.6780     7.3470     7.7280 hc         1 S5V       0.050700
     16 H5           6.5850     8.6010     9.8720 hc         1 S5V       0.035533
     17 H6           8.2810     8.2140    10.1830 hc         1 S5V       0.035533
     18 H7           7.8500     9.2380     8.8090 hc         1 S5V       0.035533
     19 H8           5.1040     5.7380     8.1360 ha         1 S5V       0.126000
     20 H9           3.7810     2.9560     9.7780 ho         1 S5V       0.463000
     21 H10          5.3020     1.6150    10.7970 hc         1 S5V       0.041367
     22 H11          6.1460     2.1890    12.2350 hc         1 S5V       0.041367
     23 H12          4.4810     2.6840    11.9340 hc         1 S5V       0.041367
     24 H13          7.7590     3.8590    11.8320 ha         1 S5V       0.109000
     25 H14          8.6100     5.8100    10.6070 ha         1 S5V       0.114000
@<TRIPOS>BOND
     1     1     2 1   
     2     1    12 1   
     3     1    13 1   
     4     1    14 1   
     5     2     3 1   
     6     2     4 1   
     7     2    15 1   
     8     3    16 1   
     9     3    17 1   
    10     3    18 1   
    11     4     5 ar  
    12     4    11 ar  
    13     5     6 ar  
    14     5    19 1   
    15     6     7 1   
    16     6     8 ar  
    17     7    20 1   
    18     8     9 1   
    19     8    10 ar  
    20     9    21 1   
    21     9    22 1   
    22     9    23 1   
    23    10    11 ar  
    24    10    24 1   
    25    11    25 1   
@<TRIPOS>SUBSTRUCTURE
     1 S5V         1 TEMP              0 ****  ****    0 ROOT
