@<TRIPOS>MOLECULE
S5V
   25    25     1     0     0
SMALL
No Charge or Current Charge


@<TRIPOS>ATOM
      1 CAI          8.7630     6.8380     7.7750 c3         1 S5V      -0.084100
      2 CAH          7.4330     7.1490     8.4960 c3         1 S5V      -0.019400
      3 CAJ          7.5540     8.3890     9.4100 c3         1 S5V      -0.084100
      4 CAE          6.9140     5.9320     9.2670 ca         1 S5V      -0.041300
      5 CAD          5.6840     5.3420     8.9160 ca         1 S5V      -0.139000
      6 CAC          5.1990     4.2260     9.6160 ca         1 S5V       0.137100
      7 OAK          4.0030     3.6850     9.2450 oh         1 S5V      -0.546100
      8 CAB          5.9380     3.6760    10.6850 ca         1 S5V      -0.168300
      9 CAA          5.4340     2.4630    11.4640 c3         1 S5V      -0.046800
     10 CAG          7.1680     4.2650    11.0360 ca         1 S5V      -0.072000
     11 CAF          7.6510     5.3820    10.3340 ca         1 S5V      -0.139000
     12 H1           9.0790     7.6910     7.1620 hc         1 S5V       0.035533
     13 H2           9.5620     6.6190     8.4940 hc         1 S5V       0.035533
     14 H3           8.6480     5.9700     7.1150 hc         1 S5V       0.035533
     15 H4           6.7070     7.4070     7.7140 hc         1 S5V       0.050700
     16 H5           6.5940     8.6050     9.8930 hc         1 S5V       0.035533
     17 H6           8.3050     8.2320    10.1930 hc         1 S5V       0.035533
     18 H7           7.8480     9.2700     8.8270 hc         1 S5V       0.035533
     19 H8           5.0990     5.7500     8.0960 ha         1 S5V       0.126000
     20 H9           3.8200     2.9230     9.8330 ho         1 S5V       0.463000
     21 H10          5.3100     1.5930    10.8070 hc         1 S5V       0.041367
     22 H11          6.1330     2.1710    12.2570 hc         1 S5V       0.041367
     23 H12          4.4700     2.6700    11.9420 hc         1 S5V       0.041367
     24 H13          7.7560     3.8590    11.8570 ha         1 S5V       0.109000
     25 H14          8.6040     5.8190    10.6240 ha         1 S5V       0.114000
@<TRIPOS>BOND
     1     1     2 1   
     2     1    12 1   
     3     1    13 1   
     4     1    14 1   
     5     2     3 1   
     6     2     4 1   
     7     2    15 1   
     8     3    16 1   
     9     3    17 1   
    10     3    18 1   
    11     4     5 ar  
    12     4    11 ar  
    13     5     6 ar  
    14     5    19 1   
    15     6     7 1   
    16     6     8 ar  
    17     7    20 1   
    18     8     9 1   
    19     8    10 ar  
    20     9    21 1   
    21     9    22 1   
    22     9    23 1   
    23    10    11 ar  
    24    10    24 1   
    25    11    25 1   
@<TRIPOS>SUBSTRUCTURE
     1 S5V         1 TEMP              0 ****  ****    0 ROOT
