@<TRIPOS>MOLECULE
S5W
  102   107     1     0     0
SMALL
bcc


@<TRIPOS>ATOM
      1 CAD         18.7050    20.1420    10.6890 c6         1 S5W      -0.074400
      2 CAE         19.9610    19.6670     9.9500 c6         1 S5W      -0.070900
      3 CAI         19.9770    20.2100     8.5280 c6         1 S5W      -0.074400
      4 CAH         20.0910    21.7410     8.5450 c6         1 S5W      -0.070900
      5 CAF         19.4930    22.3590     9.8160 c6         1 S5W      -0.074400
      6 CBN         18.2730    21.5690    10.2860 c6         1 S5W      -0.044700
      7 CBO         17.5520    22.2700    11.4510 c3         1 S5W      -0.086400
      8 CAA         16.2960    21.4930    11.8490 c          1 S5W       0.689100
      9 OAB         15.6640    20.8720    11.0060 o          1 S5W      -0.604100
     10 N           15.9160    21.5070    13.1500 n          1 S5W      -0.464800
     11 CBR         16.4520    22.3720    14.1910 c6         1 S5W       0.100000
     12 CBF         16.8700    21.5680    15.4120 c6         1 S5W      -0.094400
     13 CBM         15.7160    20.7180    15.9260 c6         1 S5W      -0.076400
     14 CB          15.1400    19.8700    14.7990 c6         1 S5W      -0.073400
     15 CA          14.7830    20.6980    13.5680 c6         1 S5W       0.047700
     16 C           13.5400    21.5570    13.7790 c          1 S5W       0.633100
     17 O           12.7500    21.4020    14.6740 o          1 S5W      -0.541000
     18 OBL         13.4260    22.4650    12.8230 os         1 S5W      -0.409900
     19 CBK         12.3850    23.4610    12.8990 c3         1 S5W       0.198400
     20 CBH         11.9430    23.7350    11.4700 c3         1 S5W      -0.077400
     21 CBG         10.8400    24.7910    11.3960 c3         1 S5W      -0.026100
     22 CBE         10.5550    25.1870     9.9740 ca         1 S5W      -0.081300
     23 CAS         11.3080    26.2030     9.3760 ca         1 S5W      -0.187000
     24 CBA          9.5930    24.5440     9.2180 ca         1 S5W      -0.123000
     25 CAW          9.3780    24.8990     7.8860 ca         1 S5W      -0.187000
     26 CAT         10.1220    25.9050     7.2940 ca         1 S5W       0.107100
     27 OAO          9.9870    26.3250     6.0190 os         1 S5W      -0.297900
     28 CAM          8.9890    25.7210     5.2250 c3         1 S5W       0.122700
     29 CAU         11.1050    26.5700     8.0570 ca         1 S5W       0.112100
     30 OAK         11.7830    27.5420     7.4160 os         1 S5W      -0.299900
     31 CAJ         12.6700    28.3440     8.1670 c3         1 S5W       0.114700
     32 CBI         12.9580    24.6630    13.6100 ca         1 S5W      -0.100300
     33 CBC         13.8610    25.4920    12.9540 ca         1 S5W      -0.143000
     34 CAY         12.6150    24.9350    14.9300 ca         1 S5W      -0.122000
     35 CAZ         13.1750    26.0260    15.5820 ca         1 S5W      -0.121000
     36 CBD         14.0560    26.8680    14.9200 ca         1 S5W      -0.137000
     37 CBB         14.3930    26.6010    13.5970 ca         1 S5W       0.103100
     38 OAR         15.2630    27.4270    12.9570 os         1 S5W      -0.337900
     39 CAP         14.7540    28.1080    11.8150 c3         1 S5W       0.107400
     40 CAV         15.8840    28.5980    10.9420 c3         1 S5W       0.142400
     41 OBP         16.4360    27.6410    10.0430 os         1 S5W      -0.314900
     42 CBY         16.6660    26.3670    10.4570 ca         1 S5W       0.039100
     43 CBV         15.9840    25.3250     9.8200 ca         1 S5W       0.156600
     44 OAX         15.0920    25.6990     8.8840 os         1 S5W      -0.306900
     45 CAQ         14.4710    24.6980     8.1040 c3         1 S5W       0.121700
     46 CBU         16.2480    23.9990    10.1570 ca         1 S5W      -0.234000
     47 CBT         17.1930    23.7060    11.1330 ca         1 S5W      -0.012300
     48 CBW         17.8670    24.7370    11.7750 ca         1 S5W      -0.234000
     49 CBX         17.6190    26.0640    11.4310 ca         1 S5W       0.156600
     50 OAN         18.2620    27.1140    11.9680 os         1 S5W      -0.306900
     51 CAL         19.1410    26.8920    13.0500 c3         1 S5W       0.121700
     52 HAE         17.8880    19.4470    10.4910 hc         1 S5W       0.041950
     53 HAD         18.8860    20.1020    11.7690 hc         1 S5W       0.041950
     54 HAF         19.9990    18.5750     9.9530 hc         1 S5W       0.037700
     55 HAG         20.8610    20.0030    10.4730 hc         1 S5W       0.037700
     56 HAO         19.0550    19.9050     8.0230 hc         1 S5W       0.039700
     57 HAN         20.7960    19.7750     7.9520 hc         1 S5W       0.039700
     58 HAL         21.1390    22.0390     8.4630 hc         1 S5W       0.037700
     59 HAM         19.5870    22.1560     7.6690 hc         1 S5W       0.037700
     60 HAH         20.2380    22.3810    10.6190 hc         1 S5W       0.041950
     61 HAI         19.2320    23.4000     9.6220 hc         1 S5W       0.041950
     62 HBO         17.5780    21.5050     9.4420 hc         1 S5W       0.071700
     63 HBP         18.2600    22.2770    12.2840 hc         1 S5W       0.062700
     64 HBS         17.2930    22.9420    13.8130 h1         1 S5W       0.054700
     65 HBR         15.6910    23.1130    14.4670 h1         1 S5W       0.054700
     66 HBF         17.7180    20.9310    15.1440 hc         1 S5W       0.047700
     67 HBG         17.2190    22.2560    16.1850 hc         1 S5W       0.047700
     68 HBN         14.9410    21.3650    16.3450 hc         1 S5W       0.051200
     69 HBM         16.0530    20.0720    16.7390 hc         1 S5W       0.051200
     70 HB2         14.2640    19.3140    15.1320 hc         1 S5W       0.059200
     71 HB1         15.8790    19.1280    14.4870 hc         1 S5W       0.059200
     72 HA          14.5410    20.0170    12.7480 h1         1 S5W       0.108700
     73 HBL         11.5400    23.0700    13.4710 h1         1 S5W       0.071700
     74 HBK         11.5840    22.8030    11.0270 hc         1 S5W       0.059700
     75 HBJ         12.7970    24.0560    10.8670 hc         1 S5W       0.059700
     76 HBI         11.1390    25.6760    11.9630 hc         1 S5W       0.050700
     77 HBH          9.9350    24.4060    11.8710 hc         1 S5W       0.050700
     78 HA2         12.0610    26.7040     9.9730 ha         1 S5W       0.137000
     79 HBA          8.9930    23.7560     9.6570 ha         1 S5W       0.132000
     80 HA5          8.6130    24.3780     7.3250 ha         1 S5W       0.136000
     81 HAU          9.0350    26.2020     4.2510 h1         1 S5W       0.039033
     82 HAV          9.1600    24.6480     5.0950 h1         1 S5W       0.039033
     83 HAW          7.9890    25.8670     5.6430 h1         1 S5W       0.039033
     84 HAJ         13.0580    29.0970     7.4840 h1         1 S5W       0.043700
     85 HAP         12.1640    28.8480     8.9950 h1         1 S5W       0.043700
     86 HAQ         13.5090    27.7700     8.5670 h1         1 S5W       0.043700
     87 HBC         14.1540    25.2810    11.9330 ha         1 S5W       0.151000
     88 HA6         11.9120    24.2960    15.4480 ha         1 S5W       0.143000
     89 HA7         12.9100    26.2330    16.6100 ha         1 S5W       0.135000
     90 HBD         14.4780    27.7300    15.4210 ha         1 S5W       0.143000
     91 HAY         14.1780    28.9810    12.1430 h1         1 S5W       0.040700
     92 HAX         14.0760    27.4740    11.2360 h1         1 S5W       0.040700
     93 HA4         16.6620    29.0520    11.5620 h1         1 S5W       0.060700
     94 HA3         15.4810    29.3810    10.2990 h1         1 S5W       0.060700
     95 HAZ         13.8390    25.2170     7.3870 h1         1 S5W       0.043700
     96 HA0         15.2020    24.0940     7.5600 h1         1 S5W       0.043700
     97 HA1         13.8440    24.0360     8.7060 h1         1 S5W       0.043700
     98 HBU         15.7280    23.1910     9.6610 ha         1 S5W       0.146500
     99 HBW         18.6150    24.4960    12.5200 ha         1 S5W       0.146500
    100 HAT         19.4900    27.8700    13.3700 h1         1 S5W       0.043700
    101 HAR         18.6380    26.4050    13.8900 h1         1 S5W       0.043700
    102 HAS         20.0050    26.2890    12.7590 h1         1 S5W       0.043700
@<TRIPOS>BOND
     1     1     2 1   
     2     1     6 1   
     3     1    52 1   
     4     1    53 1   
     5     2     3 1   
     6     2    54 1   
     7     2    55 1   
     8     3     4 1   
     9     3    56 1   
    10     3    57 1   
    11     4     5 1   
    12     4    58 1   
    13     4    59 1   
    14     5     6 1   
    15     5    60 1   
    16     5    61 1   
    17     6     7 1   
    18     6    62 1   
    19     7     8 1   
    20     7    47 1   
    21     7    63 1   
    22     8     9 2   
    23     8    10 1   
    24    10    11 1   
    25    10    15 1   
    26    11    12 1   
    27    11    64 1   
    28    11    65 1   
    29    12    13 1   
    30    12    66 1   
    31    12    67 1   
    32    13    14 1   
    33    13    68 1   
    34    13    69 1   
    35    14    15 1   
    36    14    70 1   
    37    14    71 1   
    38    15    16 1   
    39    15    72 1   
    40    16    17 2   
    41    16    18 1   
    42    18    19 1   
    43    19    20 1   
    44    19    32 1   
    45    19    73 1   
    46    20    21 1   
    47    20    74 1   
    48    20    75 1   
    49    21    22 1   
    50    21    76 1   
    51    21    77 1   
    52    22    23 ar  
    53    22    24 ar  
    54    23    29 ar  
    55    23    78 1   
    56    24    25 ar  
    57    24    79 1   
    58    25    26 ar  
    59    25    80 1   
    60    26    27 1   
    61    26    29 ar  
    62    27    28 1   
    63    28    81 1   
    64    28    82 1   
    65    28    83 1   
    66    29    30 1   
    67    30    31 1   
    68    31    84 1   
    69    31    85 1   
    70    31    86 1   
    71    32    33 ar  
    72    32    34 ar  
    73    33    37 ar  
    74    33    87 1   
    75    34    35 ar  
    76    34    88 1   
    77    35    36 ar  
    78    35    89 1   
    79    36    37 ar  
    80    36    90 1   
    81    37    38 1   
    82    38    39 1   
    83    39    40 1   
    84    39    91 1   
    85    39    92 1   
    86    40    41 1   
    87    40    93 1   
    88    40    94 1   
    89    41    42 1   
    90    42    43 ar  
    91    42    49 ar  
    92    43    44 1   
    93    43    46 ar  
    94    44    45 1   
    95    45    95 1   
    96    45    96 1   
    97    45    97 1   
    98    46    47 ar  
    99    46    98 1   
   100    47    48 ar  
   101    48    49 ar  
   102    48    99 1   
   103    49    50 1   
   104    50    51 1   
   105    51   100 1   
   106    51   101 1   
   107    51   102 1   
@<TRIPOS>SUBSTRUCTURE
     1 S5W         1 TEMP              0 ****  ****    0 ROOT
