@<TRIPOS>MOLECULE
S5W
  102   107     1     0     0
SMALL
No Charge or Current Charge


@<TRIPOS>ATOM
      1 CAD         18.3860    19.9890    10.1510 c6         1 S5W      -0.074400
      2 CAE         19.3970    19.3970     9.1270 c6         1 S5W      -0.070900
      3 CAI         19.3240    20.1200     7.7630 c6         1 S5W      -0.074400
      4 CAH         19.6670    21.6290     7.9040 c6         1 S5W      -0.070900
      5 CAF         19.2350    22.2360     9.2710 c6         1 S5W      -0.074400
      6 CBN         18.0160    21.4860     9.8800 c6         1 S5W      -0.044700
      7 CBO         17.4600    22.1840    11.1710 c3         1 S5W      -0.086400
      8 CAA         16.2300    21.4590    11.7880 c          1 S5W       0.622100
      9 OAB         15.3570    20.9970    11.0620 o          1 S5W      -0.604100
     10 N           16.1160    21.3390    13.2010 n          1 S5W      -0.397800
     11 CBR         16.6870    22.4140    14.0880 c6         1 S5W       0.100000
     12 CBF         16.7750    22.0670    15.5890 c6         1 S5W      -0.094400
     13 CBM         15.4480    21.5210    16.1240 c6         1 S5W      -0.076400
     14 CB          15.0550    20.2940    15.2860 c6         1 S5W      -0.073400
     15 CA          14.9140    20.6010    13.7670 c6         1 S5W       0.047700
     16 C           13.5570    21.3080    13.4740 c          1 S5W       0.584100
     17 O           12.6830    20.7770    12.8020 o          1 S5W      -0.492000
     18 OBL         13.6180    22.6580    13.7100 os         1 S5W      -0.433100
     19 CBK         12.5050    23.5360    13.4640 c3         1 S5W       0.221600
     20 CBH         12.1980    23.6520    11.9370 c3         1 S5W      -0.077400
     21 CBG         11.1130    24.7090    11.6110 c3         1 S5W      -0.026100
     22 CBE         10.9910    24.9880    10.1200 ca         1 S5W      -0.081300
     23 CAS         11.4780    26.1970     9.5890 ca         1 S5W      -0.169000
     24 CBA         10.3850    24.0500     9.2680 ca         1 S5W      -0.105000
     25 CAW         10.2600    24.3130     7.8940 ca         1 S5W      -0.169000
     26 CAT         10.7430    25.5270     7.3550 ca         1 S5W       0.107100
     27 OAO         10.6430    25.8170     6.0030 os         1 S5W      -0.321100
     28 CAM         10.0470    24.9080     5.0610 c3         1 S5W       0.145900
     29 CAU         11.3580    26.4750     8.2080 ca         1 S5W       0.112100
     30 OAK         11.8420    27.6510     7.6580 os         1 S5W      -0.323100
     31 CAJ         12.5820    28.6150     8.4270 c3         1 S5W       0.137900
     32 CBI         12.9390    24.8690    14.0850 ca         1 S5W      -0.100300
     33 CBC         13.8370    25.7220    13.4060 ca         1 S5W      -0.125000
     34 CAY         12.4880    25.2380    15.3690 ca         1 S5W      -0.104000
     35 CAZ         12.9230    26.4410    15.9580 ca         1 S5W      -0.103000
     36 CBD         13.8040    27.2900    15.2640 ca         1 S5W      -0.119000
     37 CBB         14.2450    26.9340    13.9800 ca         1 S5W       0.103100
     38 OAR         15.0850    27.7680    13.2860 os         1 S5W      -0.361100
     39 CAP         14.6590    28.2920    12.0120 c3         1 S5W       0.130600
     40 CAV         15.8990    28.7270    11.1940 c3         1 S5W       0.165600
     41 OBP         16.1990    27.7230    10.1930 os         1 S5W      -0.338100
     42 CBY         16.4990    26.3990    10.4960 ca         1 S5W       0.039100
     43 CBV         15.8520    25.3870     9.7480 ca         1 S5W       0.156600
     44 OAX         14.9430    25.7650     8.7750 os         1 S5W      -0.330100
     45 CAQ         14.2790    24.8130     7.9260 c3         1 S5W       0.144900
     46 CBU         16.1450    24.0290     9.9920 ca         1 S5W      -0.216000
     47 CBT         17.1020    23.6610    10.9520 ca         1 S5W      -0.012300
     48 CBW         17.7580    24.6690    11.6830 ca         1 S5W      -0.216000
     49 CBX         17.4670    26.0350    11.4690 ca         1 S5W       0.156600
     50 OAN         18.1550    27.0250    12.1510 os         1 S5W      -0.330100
     51 CAL         19.0900    26.7400    13.2060 c3         1 S5W       0.144900
     52 HAE         17.4690    19.3850    10.1400 hc         1 S5W       0.041950
     53 HAD         18.8080    19.8760    11.1600 hc         1 S5W       0.041950
     54 HAF         19.2120    18.3220     8.9980 hc         1 S5W       0.037700
     55 HAG         20.4180    19.4870     9.5250 hc         1 S5W       0.037700
     56 HAO         18.3130    20.0060     7.3480 hc         1 S5W       0.039700
     57 HAN         20.0070    19.6470     7.0450 hc         1 S5W       0.039700
     58 HAL         20.7480    21.7780     7.7740 hc         1 S5W       0.037700
     59 HAM         19.1850    22.1800     7.0850 hc         1 S5W       0.037700
     60 HAH         20.0770    22.1890     9.9760 hc         1 S5W       0.041950
     61 HAI         19.0150    23.3020     9.1310 hc         1 S5W       0.041950
     62 HBO         17.2080    21.5060     9.1350 hc         1 S5W       0.071700
     63 HBP         18.2650    22.1560    11.9090 hc         1 S5W       0.062700
     64 HBS         17.7050    22.6780    13.7830 h1         1 S5W       0.054700
     65 HBR         16.0800    23.3230    13.9680 h1         1 S5W       0.054700
     66 HBF         17.5680    21.3220    15.7430 hc         1 S5W       0.047700
     67 HBG         17.0720    22.9590    16.1580 hc         1 S5W       0.047700
     68 HBN         14.6680    22.2930    16.0840 hc         1 S5W       0.051200
     69 HBM         15.5570    21.2370    17.1800 hc         1 S5W       0.051200
     70 HB2         14.1170    19.8670    15.6680 hc         1 S5W       0.059200
     71 HB1         15.8150    19.5120    15.4200 hc         1 S5W       0.059200
     72 HA          14.8350    19.6360    13.2470 h1         1 S5W       0.108700
     73 HBL         11.6070    23.1720    13.9820 h1         1 S5W       0.071700
     74 HBK         11.8410    22.6960    11.5450 hc         1 S5W       0.059700
     75 HBJ         13.1150    23.8800    11.3830 hc         1 S5W       0.059700
     76 HBI         11.3280    25.6450    12.1400 hc         1 S5W       0.050700
     77 HBH         10.1500    24.3610    12.0060 hc         1 S5W       0.050700
     78 HA2         11.9480    26.9090    10.2610 ha         1 S5W       0.119000
     79 HBA         10.0060    23.1130     9.6720 ha         1 S5W       0.114000
     80 HA5          9.7860    23.5640     7.2660 ha         1 S5W       0.118000
     81 HAU         10.0740    25.3370     4.0520 h1         1 S5W       0.039033
     82 HAV         10.5910    23.9550     5.0410 h1         1 S5W       0.039033
     83 HAW          8.9990    24.7110     5.3180 h1         1 S5W       0.039033
     84 HAJ         12.8920    29.4530     7.7890 h1         1 S5W       0.043700
     85 HAP         11.9690    29.0190     9.2430 h1         1 S5W       0.043700
     86 HAQ         13.4860    28.1630     8.8540 h1         1 S5W       0.043700
     87 HBC         14.2350    25.4470    12.4350 ha         1 S5W       0.133000
     88 HA6         11.8100    24.5880    15.9180 ha         1 S5W       0.125000
     89 HA7         12.5740    26.7160    16.9510 ha         1 S5W       0.117000
     90 HBD         14.1330    28.2230    15.7120 ha         1 S5W       0.125000
     91 HAY         14.0050    29.1590    12.1700 h1         1 S5W       0.040700
     92 HAX         14.0900    27.5500    11.4380 h1         1 S5W       0.040700
     93 HA4         16.7470    28.9280    11.8580 h1         1 S5W       0.060700
     94 HA3         15.6600    29.6720    10.6910 h1         1 S5W       0.060700
     95 HAZ         13.6560    25.3310     7.1870 h1         1 S5W       0.043700
     96 HA0         15.0080    24.2020     7.3790 h1         1 S5W       0.043700
     97 HA1         13.6310    24.1500     8.5150 h1         1 S5W       0.043700
     98 HBU         15.6460    23.2460     9.4310 ha         1 S5W       0.128500
     99 HBW         18.5160    24.3760    12.4020 ha         1 S5W       0.128500
    100 HAT         19.4840    27.6740    13.6250 h1         1 S5W       0.043700
    101 HAR         18.6040    26.1810    14.0160 h1         1 S5W       0.043700
    102 HAS         19.9380    26.1530    12.8300 h1         1 S5W       0.043700
@<TRIPOS>BOND
     1     1     2 1   
     2     1     6 1   
     3     1    52 1   
     4     1    53 1   
     5     2     3 1   
     6     2    54 1   
     7     2    55 1   
     8     3     4 1   
     9     3    56 1   
    10     3    57 1   
    11     4     5 1   
    12     4    58 1   
    13     4    59 1   
    14     5     6 1   
    15     5    60 1   
    16     5    61 1   
    17     6     7 1   
    18     6    62 1   
    19     7     8 1   
    20     7    47 1   
    21     7    63 1   
    22     8     9 2   
    23     8    10 1   
    24    10    11 1   
    25    10    15 1   
    26    11    12 1   
    27    11    64 1   
    28    11    65 1   
    29    12    13 1   
    30    12    66 1   
    31    12    67 1   
    32    13    14 1   
    33    13    68 1   
    34    13    69 1   
    35    14    15 1   
    36    14    70 1   
    37    14    71 1   
    38    15    16 1   
    39    15    72 1   
    40    16    17 2   
    41    16    18 1   
    42    18    19 1   
    43    19    20 1   
    44    19    32 1   
    45    19    73 1   
    46    20    21 1   
    47    20    74 1   
    48    20    75 1   
    49    21    22 1   
    50    21    76 1   
    51    21    77 1   
    52    22    23 ar  
    53    22    24 ar  
    54    23    29 ar  
    55    23    78 1   
    56    24    25 ar  
    57    24    79 1   
    58    25    26 ar  
    59    25    80 1   
    60    26    27 1   
    61    26    29 ar  
    62    27    28 1   
    63    28    81 1   
    64    28    82 1   
    65    28    83 1   
    66    29    30 1   
    67    30    31 1   
    68    31    84 1   
    69    31    85 1   
    70    31    86 1   
    71    32    33 ar  
    72    32    34 ar  
    73    33    37 ar  
    74    33    87 1   
    75    34    35 ar  
    76    34    88 1   
    77    35    36 ar  
    78    35    89 1   
    79    36    37 ar  
    80    36    90 1   
    81    37    38 1   
    82    38    39 1   
    83    39    40 1   
    84    39    91 1   
    85    39    92 1   
    86    40    41 1   
    87    40    93 1   
    88    40    94 1   
    89    41    42 1   
    90    42    43 ar  
    91    42    49 ar  
    92    43    44 1   
    93    43    46 ar  
    94    44    45 1   
    95    45    95 1   
    96    45    96 1   
    97    45    97 1   
    98    46    47 ar  
    99    46    98 1   
   100    47    48 ar  
   101    48    49 ar  
   102    48    99 1   
   103    49    50 1   
   104    50    51 1   
   105    51   100 1   
   106    51   101 1   
   107    51   102 1   
@<TRIPOS>SUBSTRUCTURE
     1 S5W         1 TEMP              0 ****  ****    0 ROOT
