@<TRIPOS>MOLECULE
S5Y
   23    22     1     0     0
SMALL
abcg2


@<TRIPOS>ATOM
      1 C1          17.7680   -28.6830    11.7520 c3         1 S5Y       0.161600
      2 C2          17.7980   -26.3580    12.0470 c3         1 S5Y       0.163600
      3 C3          16.9200   -25.1550    12.2800 c3         1 S5Y       0.159600
      4 C4          15.3320   -23.7660    11.1730 c3         1 S5Y       0.175600
      5 C5          13.8790   -24.0320    11.5210 c3         1 S5Y       0.055600
      6 S           13.6910   -24.5760    13.2540 sh         1 S5Y      -0.458800
      7 O1          16.1240   -24.9290    11.1400 os         1 S5Y      -0.445000
      8 O           17.0070   -27.5120    11.9380 os         1 S5Y      -0.444000
      9 C           16.8370   -29.8710    11.6640 c3         1 S5Y      -0.091100
     10 H1          18.4750   -28.8170    12.5840 h1         1 S5Y       0.015700
     11 H2          18.3730   -28.6080    10.8370 h1         1 S5Y       0.015700
     12 H3          18.4980   -26.4350    12.8910 h1         1 S5Y       0.025700
     13 H4          18.4080   -26.2090    11.1430 h1         1 S5Y       0.025700
     14 H5          17.5720   -24.2940    12.4800 h1         1 S5Y       0.037200
     15 H6          16.3120   -25.3140    13.1790 h1         1 S5Y       0.037200
     16 H7          15.7520   -23.0120    11.8500 h1         1 S5Y       0.047700
     17 H8          15.3450   -23.3320    10.1690 h1         1 S5Y       0.047700
     18 H9          13.3180   -23.1090    11.3790 h1         1 S5Y       0.065200
     19 H10         13.4650   -24.7880    10.8530 h1         1 S5Y       0.065200
     20 H11         12.3540   -24.5570    13.2930 hs         1 S5Y       0.209800
     21 H12         17.4150   -30.7860    11.5320 hc         1 S5Y       0.042367
     22 H13         16.2460   -29.9780    12.5750 hc         1 S5Y       0.042367
     23 H14         16.1550   -29.7800    10.8190 hc         1 S5Y       0.042367
@<TRIPOS>BOND
     1     1     8 1   
     2     1     9 1   
     3     1    10 1   
     4     1    11 1   
     5     2     3 1   
     6     2     8 1   
     7     2    12 1   
     8     2    13 1   
     9     3     7 1   
    10     3    14 1   
    11     3    15 1   
    12     4     5 1   
    13     4     7 1   
    14     4    16 1   
    15     4    17 1   
    16     5     6 1   
    17     5    18 1   
    18     5    19 1   
    19     6    20 1   
    20     9    21 1   
    21     9    22 1   
    22     9    23 1   
@<TRIPOS>SUBSTRUCTURE
     1 S5Y         1 TEMP              0 ****  ****    0 ROOT
