@<TRIPOS>MOLECULE
S5Y
   23    22     1     0     0
SMALL
No Charge or Current Charge


@<TRIPOS>ATOM
      1 C1          17.8690   -28.7550    11.7380 c3         1 S5Y       0.161600
      2 C2          17.7090   -26.3890    12.2150 c3         1 S5Y       0.163600
      3 C3          16.6780   -25.2430    12.3480 c3         1 S5Y       0.159600
      4 C4          15.3120   -23.7510    10.9480 c3         1 S5Y       0.175600
      5 C5          13.9610   -24.0040    11.6660 c3         1 S5Y       0.055600
      6 S           13.9310   -23.5920    13.4820 sh         1 S5Y      -0.458800
      7 O1          16.1720   -24.9120    11.0360 os         1 S5Y      -0.445000
      8 O           17.0160   -27.6120    11.8950 os         1 S5Y      -0.444000
      9 C           16.9780   -29.9610    11.4020 c3         1 S5Y      -0.091100
     10 H1          18.4250   -28.9560    12.6640 h1         1 S5Y       0.015700
     11 H2          18.5900   -28.5940    10.9250 h1         1 S5Y       0.015700
     12 H3          18.2450   -26.4950    13.1670 h1         1 S5Y       0.025700
     13 H4          18.4410   -26.1360    11.4370 h1         1 S5Y       0.025700
     14 H5          17.1750   -24.3730    12.7980 h1         1 S5Y       0.037200
     15 H6          15.8740   -25.5670    13.0200 h1         1 S5Y       0.037200
     16 H7          15.7990   -22.8590    11.3650 h1         1 S5Y       0.047700
     17 H8          15.1000   -23.5440     9.8910 h1         1 S5Y       0.047700
     18 H9          13.1960   -23.3840    11.1820 h1         1 S5Y       0.065200
     19 H10         13.6660   -25.0530    11.5310 h1         1 S5Y       0.065200
     20 H11         12.6320   -23.9270    13.6900 hs         1 S5Y       0.209800
     21 H12         17.5910   -30.8610    11.2730 hc         1 S5Y       0.042367
     22 H13         16.2600   -30.1470    12.2100 hc         1 S5Y       0.042367
     23 H14         16.4240   -29.7860    10.4720 hc         1 S5Y       0.042367
@<TRIPOS>BOND
     1     1     8 1   
     2     1     9 1   
     3     1    10 1   
     4     1    11 1   
     5     2     3 1   
     6     2     8 1   
     7     2    12 1   
     8     2    13 1   
     9     3     7 1   
    10     3    14 1   
    11     3    15 1   
    12     4     5 1   
    13     4     7 1   
    14     4    16 1   
    15     4    17 1   
    16     5     6 1   
    17     5    18 1   
    18     5    19 1   
    19     6    20 1   
    20     9    21 1   
    21     9    22 1   
    22     9    23 1   
@<TRIPOS>SUBSTRUCTURE
     1 S5Y         1 TEMP              0 ****  ****    0 ROOT
