@<TRIPOS>MOLECULE
S5Z
   28    29     1     0     0
SMALL
No Charge or Current Charge


@<TRIPOS>ATOM
      1 C10          4.5150     1.1860     0.7450 ca         1 S5Z      -0.117000
      2 C13          3.3950    -0.9230    -0.7290 ca         1 S5Z      -0.111500
      3 C15         -1.2520     0.4520     0.3250 ca         1 S5Z      -0.071300
      4 O01         -3.8490    -0.8590     1.3210 o          1 S5Z      -0.713500
      5 O03         -3.7010    -1.8880    -0.5650 o          1 S5Z      -0.713500
      6 C04         -1.7450    -0.8770     0.2610 ca         1 S5Z      -0.081600
      7 C05         -0.8270    -1.9410     0.1270 ca         1 S5Z      -0.101000
      8 C06          0.5540    -1.6980     0.0670 ca         1 S5Z      -0.109000
      9 C07          1.0670    -0.3820     0.1350 cp         1 S5Z      -0.093000
     10 C08          2.5410    -0.1200     0.0700 cp         1 S5Z       0.011000
     11 C09          3.1320     0.9400     0.8050 ca         1 S5Z      -0.111500
     12 C11          5.3380     0.3770    -0.0540 ca         1 S5Z      -0.134000
     13 C12          4.7780    -0.6770    -0.7910 ca         1 S5Z      -0.117000
     14 C14          0.1380     0.6800     0.2610 ca         1 S5Z      -0.099000
     15 S17         -2.8970     2.0300    -1.2460 sh         1 S5Z      -0.465800
     16 H1           4.9470     2.0020     1.3200 ha         1 S5Z       0.099000
     17 H2           2.9790    -1.7360    -1.3180 ha         1 S5Z       0.115000
     18 H4          -1.1920    -2.9640     0.0770 ha         1 S5Z       0.125000
     19 H5           1.2310    -2.5440    -0.0200 ha         1 S5Z       0.090000
     20 H6           2.5140     1.5690     1.4410 ha         1 S5Z       0.115000
     21 H7           6.4080     0.5670    -0.1010 ha         1 S5Z       0.097000
     22 H8           5.4130    -1.3040    -1.4140 ha         1 S5Z       0.099000
     23 H9           0.5040     1.7040     0.2910 ha         1 S5Z       0.092000
     24 H10         -2.9960     1.4780     1.1430 h1         1 S5Z       0.071700
     25 H11         -1.6270     2.5400     0.7750 h1         1 S5Z       0.071700
     26 H12         -3.6330     3.0980    -0.8560 hs         1 S5Z       0.181800
     27 C02         -3.2230    -1.1980     0.3260 c          1 S5Z       0.718600
     28 C16         -2.1850     1.6600     0.4270 c3         1 S5Z       0.150900
@<TRIPOS>BOND
     1     1    11 ar  
     2     1    12 ar  
     3     1    16 1   
     4     2    10 ar  
     5     2    13 ar  
     6     2    17 1   
     7     3     6 ar  
     8     3    14 ar  
     9     3    28 1   
    10     4    27 1   
    11     5    27 1   
    12     6     7 ar  
    13     6    27 1   
    14     7     8 ar  
    15     7    18 1   
    16     8     9 ar  
    17     8    19 1   
    18     9    10 1   
    19     9    14 ar  
    20    10    11 ar  
    21    11    20 1   
    22    12    13 ar  
    23    12    21 1   
    24    13    22 1   
    25    14    23 1   
    26    15    26 1   
    27    15    28 1   
    28    24    28 1   
    29    25    28 1   
@<TRIPOS>SUBSTRUCTURE
     1 S5Z         1 TEMP              0 ****  ****    0 ROOT
