@<TRIPOS>MOLECULE
S5Z
   28    29     1     0     0
SMALL
abcg2


@<TRIPOS>ATOM
      1 C10          4.4530     1.1740     0.7370 ca         1 S5Z      -0.117000
      2 C13          3.3530    -0.9060    -0.7260 ca         1 S5Z      -0.111500
      3 C15         -1.2220     0.4470     0.3540 ca         1 S5Z      -0.071300
      4 O01         -3.8750    -0.6410     1.2240 o          1 S5Z      -0.713500
      5 O03         -3.5950    -2.0830    -0.4520 o          1 S5Z      -0.713500
      6 C04         -1.7200    -0.8590     0.2640 ca         1 S5Z      -0.081600
      7 C05         -0.8080    -1.8990     0.0990 ca         1 S5Z      -0.101000
      8 C06          0.5570    -1.6740     0.0510 ca         1 S5Z      -0.109000
      9 C07          1.0640    -0.3770     0.1280 cp         1 S5Z      -0.093000
     10 C08          2.5160    -0.1160     0.0650 cp         1 S5Z       0.011000
     11 C09          3.0890     0.9270     0.7960 ca         1 S5Z      -0.111500
     12 C11          5.2740     0.3790    -0.0530 ca         1 S5Z      -0.134000
     13 C12          4.7170    -0.6630    -0.7830 ca         1 S5Z      -0.117000
     14 C14          0.1500     0.6660     0.2620 ca         1 S5Z      -0.099000
     15 S17         -2.7420     2.0260    -1.2170 sh         1 S5Z      -0.465800
     16 H1           4.8760     1.9860     1.3130 ha         1 S5Z       0.099000
     17 H2           2.9340    -1.7090    -1.3200 ha         1 S5Z       0.115000
     18 H4          -1.1740    -2.9150     0.0250 ha         1 S5Z       0.125000
     19 H5           1.2300    -2.5180    -0.0330 ha         1 S5Z       0.090000
     20 H6           2.4660     1.5430     1.4340 ha         1 S5Z       0.115000
     21 H7           6.3380     0.5710    -0.0990 ha         1 S5Z       0.097000
     22 H8           5.3450    -1.2840    -1.4090 ha         1 S5Z       0.099000
     23 H9           0.5100     1.6890     0.2880 ha         1 S5Z       0.092000
     24 H10         -2.9640     1.4400     1.1130 h1         1 S5Z       0.071700
     25 H11         -1.5670     2.5020     0.8400 h1         1 S5Z       0.071700
     26 H12         -3.5570     3.0360    -0.8880 hs         1 S5Z       0.181800
     27 C02         -3.2010    -1.2150     0.3480 c          1 S5Z       0.718600
     28 C16         -2.1210     1.6440     0.4620 c3         1 S5Z       0.150900
@<TRIPOS>BOND
     1     1    11 ar  
     2     1    12 ar  
     3     1    16 1   
     4     2    10 ar  
     5     2    13 ar  
     6     2    17 1   
     7     3     6 ar  
     8     3    14 ar  
     9     3    28 1   
    10     4    27 1   
    11     5    27 1   
    12     6     7 ar  
    13     6    27 1   
    14     7     8 ar  
    15     7    18 1   
    16     8     9 ar  
    17     8    19 1   
    18     9    10 1   
    19     9    14 ar  
    20    10    11 ar  
    21    11    20 1   
    22    12    13 ar  
    23    12    21 1   
    24    13    22 1   
    25    14    23 1   
    26    15    26 1   
    27    15    28 1   
    28    24    28 1   
    29    25    28 1   
@<TRIPOS>SUBSTRUCTURE
     1 S5Z         1 TEMP              0 ****  ****    0 ROOT
