@<TRIPOS>MOLECULE
S60
   25    27     1     0     0
SMALL
No Charge or Current Charge


@<TRIPOS>ATOM
      1 C2          -3.0770     0.7880    -0.0900 cc         1 S60       0.708800
      2 N11         -4.2290     1.4350    -0.1200 nv         1 S60      -1.038200
      3 N3          -1.9970     1.5280    -0.1010 nd         1 S60      -0.701100
      4 C4          -0.8080     0.7750    -0.0610 ca         1 S60       0.200400
      5 C10          0.4160     1.4800    -0.0650 ca         1 S60      -0.069000
      6 C9           1.6200     0.7670    -0.0260 ca         1 S60       0.119400
      7 N14          2.9090     1.2740    -0.0230 nc         1 S60      -0.588100
      8 C13          3.6550     0.1540     0.0220 cd         1 S60       0.441800
      9 C15          5.1550     0.1930     0.0430 c3         1 S60      -0.119400
     10 N12          2.9150    -1.0330     0.0480 na         1 S60      -0.320600
     11 C8           1.6190    -0.5960     0.0160 ca         1 S60      -0.113200
     12 C7           0.4380    -1.3470     0.0220 ca         1 S60      -0.031000
     13 C5          -0.7880    -0.6430    -0.0170 ca         1 S60      -0.210600
     14 C6          -2.0850    -1.3660    -0.0170 c          1 S60       0.591600
     15 O16         -2.1930    -2.5820     0.0110 o          1 S60      -0.547000
     16 N1          -3.1600    -0.5530    -0.0510 ns         1 S60      -0.454400
     17 HN11        -4.1320     2.4310     0.0370 hn         1 S60       0.489500
     18 HN1A        -5.0150     1.0000     0.3470 hn         1 S60       0.489500
     19 H10          0.4250     2.5650    -0.0980 ha         1 S60       0.146000
     20 H15          5.5400    -0.2340     0.9750 hc         1 S60       0.061700
     21 H15A         5.5700    -0.3820    -0.7920 hc         1 S60       0.061700
     22 H15B         5.5300     1.2200    -0.0370 hc         1 S60       0.061700
     23 HN12         3.2740    -1.9780     0.0830 hn         1 S60       0.358000
     24 H7           0.4690    -2.4340     0.0550 ha         1 S60       0.138000
     25 HN1         -4.0620    -0.9960    -0.0750 hn         1 S60       0.324500
@<TRIPOS>BOND
     1     1     2 1   
     2     1     3 2   
     3     1    16 1   
     4     2    17 1   
     5     2    18 1   
     6     3     4 1   
     7     4     5 ar  
     8     4    13 ar  
     9     5     6 ar  
    10     5    19 1   
    11     6     7 1   
    12     6    11 ar  
    13     7     8 2   
    14     8     9 1   
    15     8    10 1   
    16     9    20 1   
    17     9    21 1   
    18     9    22 1   
    19    10    11 1   
    20    10    23 1   
    21    11    12 ar  
    22    12    13 ar  
    23    12    24 1   
    24    13    14 1   
    25    14    15 2   
    26    14    16 1   
    27    16    25 1   
@<TRIPOS>SUBSTRUCTURE
     1 S60         1 TEMP              0 ****  ****    0 ROOT
