@<TRIPOS>MOLECULE
S60
   25    27     1     0     0
SMALL
abcg2


@<TRIPOS>ATOM
      1 C2          -3.0670     0.8240    -0.0530 cc         1 S60       0.708800
      2 N11         -4.2540     1.4620    -0.1310 nv         1 S60      -1.038200
      3 N3          -1.9580     1.4850    -0.0500 nd         1 S60      -0.701100
      4 C4          -0.7810     0.7770    -0.0310 ca         1 S60       0.200400
      5 C10          0.4200     1.4900    -0.0380 ca         1 S60      -0.069000
      6 C9           1.6120     0.7840    -0.0150 ca         1 S60       0.119400
      7 N14          2.9050     1.2440    -0.0160 nc         1 S60      -0.588100
      8 C13          3.6570     0.1730     0.0130 cd         1 S60       0.441800
      9 C15          5.1390     0.1660     0.0280 c3         1 S60      -0.119400
     10 N12          2.9350    -0.9750     0.0330 na         1 S60      -0.320600
     11 C8           1.6070    -0.6290     0.0160 ca         1 S60      -0.113200
     12 C7           0.4430    -1.3600     0.0240 ca         1 S60      -0.031000
     13 C5          -0.7540    -0.6420     0.0000 ca         1 S60      -0.210600
     14 C6          -2.0180    -1.3620     0.0050 c          1 S60       0.591600
     15 O16         -2.1400    -2.5760     0.0300 o          1 S60      -0.547000
     16 N1          -3.1240    -0.5460    -0.0250 ns         1 S60      -0.454400
     17 HN11        -4.2370     2.4550     0.0270 hn         1 S60       0.489500
     18 HN1A        -5.0930     0.9950     0.1690 hn         1 S60       0.489500
     19 H10          0.4050     2.5710    -0.0610 ha         1 S60       0.146000
     20 H15          5.5160    -0.2740     0.9530 hc         1 S60       0.061700
     21 H15A         5.5360    -0.4220    -0.8000 hc         1 S60       0.061700
     22 H15B         5.5160     1.1820    -0.0530 hc         1 S60       0.061700
     23 HN12         3.3120    -1.9100     0.0560 hn         1 S60       0.358000
     24 H7           0.4410    -2.4420     0.0460 ha         1 S60       0.138000
     25 HN1         -4.0260    -1.0050    -0.0430 hn         1 S60       0.324500
@<TRIPOS>BOND
     1     1     2 1   
     2     1     3 2   
     3     1    16 1   
     4     2    17 1   
     5     2    18 1   
     6     3     4 1   
     7     4     5 ar  
     8     4    13 ar  
     9     5     6 ar  
    10     5    19 1   
    11     6     7 1   
    12     6    11 ar  
    13     7     8 2   
    14     8     9 1   
    15     8    10 1   
    16     9    20 1   
    17     9    21 1   
    18     9    22 1   
    19    10    11 1   
    20    10    23 1   
    21    11    12 ar  
    22    12    13 ar  
    23    12    24 1   
    24    13    14 1   
    25    14    15 2   
    26    14    16 1   
    27    16    25 1   
@<TRIPOS>SUBSTRUCTURE
     1 S60         1 TEMP              0 ****  ****    0 ROOT
