@<TRIPOS>MOLECULE
S61
   45    47     1     0     0
SMALL
bcc


@<TRIPOS>ATOM
      1 C26          4.7530     0.7750     2.1870 c3         1 S61      -0.052800
      2 C25          4.4440     1.4360     0.8720 ca         1 S61      -0.054300
      3 C24          5.0140     2.6720     0.5720 ca         1 S61      -0.139000
      4 C23          4.7450     3.3240    -0.6230 ca         1 S61      -0.143000
      5 C22          3.8920     2.7370    -1.5450 ca         1 S61      -0.142000
      6 C21          3.3190     1.5060    -1.2580 ca         1 S61      -0.122000
      7 C20          3.5810     0.8480    -0.0610 ca         1 S61      -0.069300
      8 C16          2.9920    -0.5250     0.1920 c3         1 S61       0.163000
      9 C17          3.8370    -1.6090    -0.4660 c3         1 S61      -0.232400
     10 C18          3.4610    -3.0520    -0.0670 c          1 S61       0.924600
     11 O27          2.9090    -3.2110     1.0370 o          1 S61      -0.829800
     12 O19          3.7830    -3.9400    -0.8790 o          1 S61      -0.829800
     13 N15          1.6310    -0.6270    -0.3020 ns         1 S61      -0.509900
     14 C14          0.6070    -0.0370     0.3130 c          1 S61       0.683300
     15 O28          0.7020     0.6320     1.3310 o          1 S61      -0.622100
     16 C10         -0.7240    -0.2260    -0.3290 cc         1 S61       0.072800
     17 N9          -1.7980     0.3130     0.2910 na         1 S61      -0.452000
     18 C11         -1.1040    -0.8430    -1.4790 cd         1 S61      -0.323200
     19 C12         -2.5220    -0.6250    -1.6380 c          1 S61       0.708700
     20 O13         -3.3190    -1.0130    -2.4810 o          1 S61      -0.630500
     21 N7          -2.8660     0.1600    -0.5500 n          1 S61      -0.264400
     22 C5          -4.1740     0.4280    -0.1120 ca         1 S61       0.012600
     23 C4          -4.9340     1.4100    -0.7330 ca         1 S61      -0.081000
     24 C3          -6.2360     1.6490    -0.3190 ca         1 S61      -0.150000
     25 C2          -6.7750     0.9120     0.7270 ca         1 S61      -0.102000
     26 C1          -6.0270    -0.0730     1.3580 ca         1 S61      -0.177000
     27 C6          -4.7410    -0.3090     0.9200 ca         1 S61       0.151900
     28 F8          -4.0140    -1.2730     1.4930 f          1 S61      -0.116900
     29 H261         3.8530     0.6630     2.7960 hc         1 S61       0.046367
     30 H262         5.1810    -0.2220     2.0610 hc         1 S61       0.046367
     31 H263         5.4640     1.3670     2.7610 hc         1 S61       0.046367
     32 H24          5.6790     3.1340     1.2920 ha         1 S61       0.116000
     33 H23          5.1990     4.2850    -0.8290 ha         1 S61       0.114000
     34 H22          3.6720     3.2310    -2.4820 ha         1 S61       0.116000
     35 H21          2.6510     1.0540    -1.9810 ha         1 S61       0.126000
     36 H16          2.9650    -0.7220     1.2640 h1         1 S61       0.101700
     37 H171         3.8110    -1.4910    -1.5540 hc         1 S61       0.034700
     38 H172         4.8820    -1.4460    -0.1810 hc         1 S61       0.034700
     39 H15          1.4670    -1.1730    -1.1320 hn         1 S61       0.332500
     40 H9          -1.7380     1.1760     0.8170 hn         1 S61       0.466800
     41 H11         -0.4950    -1.4200    -2.1560 ha         1 S61       0.183000
     42 H4          -4.4940     1.9840    -1.5370 ha         1 S61       0.148000
     43 H3          -6.8250     2.4130    -0.8080 ha         1 S61       0.134000
     44 H2          -7.7880     1.1000     1.0570 ha         1 S61       0.129000
     45 H1          -6.4410    -0.6580     2.1680 ha         1 S61       0.149000
@<TRIPOS>BOND
     1     1     2 1   
     2     1    29 1   
     3     1    30 1   
     4     1    31 1   
     5     2     3 ar  
     6     2     7 ar  
     7     3     4 ar  
     8     3    32 1   
     9     4     5 ar  
    10     4    33 1   
    11     5     6 ar  
    12     5    34 1   
    13     6     7 ar  
    14     6    35 1   
    15     7     8 1   
    16     8     9 1   
    17     8    13 1   
    18     8    36 1   
    19     9    10 1   
    20     9    37 1   
    21     9    38 1   
    22    10    11 1   
    23    10    12 1   
    24    13    14 1   
    25    13    39 1   
    26    14    15 2   
    27    14    16 1   
    28    16    17 1   
    29    16    18 2   
    30    17    21 1   
    31    17    40 1   
    32    18    19 1   
    33    18    41 1   
    34    19    20 2   
    35    19    21 1   
    36    21    22 1   
    37    22    23 ar  
    38    22    27 ar  
    39    23    24 ar  
    40    23    42 1   
    41    24    25 ar  
    42    24    43 1   
    43    25    26 ar  
    44    25    44 1   
    45    26    27 ar  
    46    26    45 1   
    47    27    28 1   
@<TRIPOS>SUBSTRUCTURE
     1 S61         1 TEMP              0 ****  ****    0 ROOT
