@<TRIPOS>MOLECULE
S61
   45    47     1     0     0
SMALL
No Charge or Current Charge


@<TRIPOS>ATOM
      1 C26          4.8470     0.7220     2.2660 c3         1 S61      -0.052800
      2 C25          4.5840     1.4320     0.9400 ca         1 S61      -0.054300
      3 C24          5.1490     2.7070     0.7340 ca         1 S61      -0.121000
      4 C23          4.9450     3.3970    -0.4700 ca         1 S61      -0.125000
      5 C22          4.1730     2.8160    -1.4850 ca         1 S61      -0.124000
      6 C21          3.6040     1.5480    -1.2930 ca         1 S61      -0.104000
      7 C20          3.7950     0.8420    -0.0840 ca         1 S61      -0.069300
      8 C16          3.1510    -0.5450     0.0780 c3         1 S61       0.163000
      9 C17          3.8920    -1.6080    -0.7620 c3         1 S61      -0.232400
     10 C18          3.2830    -2.9910    -0.5230 c          1 S61       0.714000
     11 O27          3.6960    -3.6430     0.4230 o          1 S61      -0.724500
     12 O19          2.3860    -3.3600    -1.2640 o          1 S61      -0.724500
     13 N15          1.7290    -0.5060    -0.2580 ns         1 S61      -0.442900
     14 C14          0.7360    -0.0470     0.5800 c          1 S61       0.616300
     15 O28          0.9820     0.3890     1.7000 o          1 S61      -0.622100
     16 C10         -0.6540    -0.1270     0.0080 cc         1 S61       0.072800
     17 N9          -1.8810     0.2500     0.5850 na         1 S61      -0.507200
     18 C11         -1.0080    -0.6120    -1.2350 cd         1 S61      -0.373200
     19 C12         -2.4250    -0.5720    -1.4960 c          1 S61       0.566200
     20 O13         -3.0050    -0.9570    -2.5010 o          1 S61      -0.555000
     21 N7          -2.9730    -0.0150    -0.3360 n          1 S61      -0.197400
     22 C5          -4.3610     0.2860    -0.0540 ca         1 S61       0.012600
     23 C4          -5.2360     0.6370    -1.1080 ca         1 S61      -0.063000
     24 C3          -6.5860     0.9390    -0.8540 ca         1 S61      -0.132000
     25 C2          -7.0870     0.8960     0.4550 ca         1 S61      -0.084000
     26 C1          -6.2330     0.5520     1.5140 ca         1 S61      -0.159000
     27 C6          -4.8820     0.2510     1.2660 ca         1 S61       0.187000
     28 F8          -4.1030    -0.0930     2.3170 f          1 S61      -0.152000
     29 H261         3.9180     0.5890     2.8330 hc         1 S61       0.046367
     30 H262         5.2930    -0.2670     2.1040 hc         1 S61       0.046367
     31 H263         5.5380     1.2870     2.9020 hc         1 S61       0.046367
     32 H24          5.7530     3.1690     1.5120 ha         1 S61       0.098000
     33 H23          5.3860     4.3800    -0.6170 ha         1 S61       0.096000
     34 H22          4.0160     3.3480    -2.4210 ha         1 S61       0.098000
     35 H21          3.0100     1.1100    -2.0930 ha         1 S61       0.108000
     36 H16          3.2170    -0.8620     1.1270 h1         1 S61       0.101700
     37 H171         3.7830    -1.3150    -1.8130 hc         1 S61       0.034700
     38 H172         4.9290    -1.5860    -0.4060 hc         1 S61       0.034700
     39 H15          1.4370    -0.8860    -1.1480 hn         1 S61       0.332500
     40 H9          -2.0990     0.6180     1.5140 hn         1 S61       0.522000
     41 H11         -0.3570    -1.0150    -2.0000 ha         1 S61       0.233000
     42 H4          -4.8720     0.6980    -2.1300 ha         1 S61       0.130000
     43 H3          -7.2430     1.2110    -1.6770 ha         1 S61       0.116000
     44 H2          -8.1320     1.1300     0.6490 ha         1 S61       0.111000
     45 H1          -6.6150     0.5150     2.5310 ha         1 S61       0.131000
@<TRIPOS>BOND
     1     1     2 1   
     2     1    29 1   
     3     1    30 1   
     4     1    31 1   
     5     2     3 ar  
     6     2     7 ar  
     7     3     4 ar  
     8     3    32 1   
     9     4     5 ar  
    10     4    33 1   
    11     5     6 ar  
    12     5    34 1   
    13     6     7 ar  
    14     6    35 1   
    15     7     8 1   
    16     8     9 1   
    17     8    13 1   
    18     8    36 1   
    19     9    10 1   
    20     9    37 1   
    21     9    38 1   
    22    10    11 1   
    23    10    12 1   
    24    13    14 1   
    25    13    39 1   
    26    14    15 2   
    27    14    16 1   
    28    16    17 1   
    29    16    18 2   
    30    17    21 1   
    31    17    40 1   
    32    18    19 1   
    33    18    41 1   
    34    19    20 2   
    35    19    21 1   
    36    21    22 1   
    37    22    23 ar  
    38    22    27 ar  
    39    23    24 ar  
    40    23    42 1   
    41    24    25 ar  
    42    24    43 1   
    43    25    26 ar  
    44    25    44 1   
    45    26    27 ar  
    46    26    45 1   
    47    27    28 1   
@<TRIPOS>SUBSTRUCTURE
     1 S61         1 TEMP              0 ****  ****    0 ROOT
