@<TRIPOS>MOLECULE
S62
   20    21     1     0     0
SMALL
abcg2


@<TRIPOS>ATOM
      1 C1          -1.3100    -0.6720     0.0870 ca         1 S62       0.035000
      2 C2          -0.0310    -0.1160     0.0420 ca         1 S62       0.048400
      3 C3           0.1270     1.2780    -0.0410 ca         1 S62      -0.171000
      4 C4          -0.9750     2.1280    -0.0800 ca         1 S62      -0.132000
      5 C5          -2.2330     1.5640    -0.0380 ca         1 S62      -0.022000
      6 C6          -2.3980     0.1740     0.0450 ca         1 S62      -0.250500
      7 S13          1.8100     1.6660    -0.0700 ss         1 S62       0.035800
      8 C14          2.1490    -0.0340     0.0240 cc         1 S62       0.255600
      9 N15          1.1460    -0.8270     0.0760 nd         1 S62      -0.455100
     10 S20          3.8720    -0.5500     0.0250 s6         1 S62       1.225900
     11 O22          4.0360    -1.3260     1.2560 o          1 S62      -0.690533
     12 O24          4.0280    -1.3310    -1.2050 o          1 S62      -0.690533
     13 O26          4.5710     0.7420     0.0170 o          1 S62      -0.690533
     14 S28         -4.0600    -0.4950     0.0260 s6         1 S62       1.273100
     15 O30         -4.8420     0.3850     0.9100 o          1 S62      -0.705867
     16 O32         -4.4760    -0.4150    -1.3850 o          1 S62      -0.705867
     17 O34         -3.9430    -1.8760     0.5230 o          1 S62      -0.705867
     18 H1          -1.4280    -1.7450     0.1570 ha         1 S62       0.143000
     19 H4          -0.8540     3.2010    -0.1380 ha         1 S62       0.092000
     20 H5          -3.0990     2.2120    -0.0590 ha         1 S62       0.111000
@<TRIPOS>BOND
     1     1     2 ar  
     2     1     6 ar  
     3     1    18 1   
     4     2     3 ar  
     5     2     9 1   
     6     3     4 ar  
     7     3     7 1   
     8     4     5 ar  
     9     4    19 1   
    10     5     6 ar  
    11     5    20 1   
    12     6    14 1   
    13     7     8 1   
    14     8     9 2   
    15     8    10 1   
    16    10    11 1   
    17    10    12 1   
    18    10    13 1   
    19    14    15 1   
    20    14    16 1   
    21    14    17 1   
@<TRIPOS>SUBSTRUCTURE
     1 S62         1 TEMP              0 ****  ****    0 ROOT
