@<TRIPOS>MOLECULE
S62
   20    21     1     0     0
SMALL
No Charge or Current Charge


@<TRIPOS>ATOM
      1 C1          -1.3400    -0.6530     0.1800 ca         1 S62       0.035000
      2 C2          -0.0450    -0.1170     0.0610 ca         1 S62       0.048400
      3 C3           0.1220     1.2320    -0.1720 ca         1 S62      -0.171000
      4 C4          -0.9710     2.1010    -0.3000 ca         1 S62      -0.132000
      5 C5          -2.2720     1.5760    -0.1830 ca         1 S62      -0.022000
      6 C6          -2.4660     0.1950     0.0650 ca         1 S62      -0.250500
      7 S13          1.8130     1.6870    -0.2880 ss         1 S62       0.035800
      8 C14          2.1730    -0.0350    -0.0040 cc         1 S62       0.255600
      9 N15          1.1190    -0.8710     0.1620 nd         1 S62      -0.455100
     10 S20          3.9720    -0.5630     0.0440 s6         1 S62       1.225900
     11 O22          3.9250    -2.0170     0.2920 o          1 S62      -0.690533
     12 O24          4.4560    -0.1320    -1.2800 o          1 S62      -0.690533
     13 O26          4.5110     0.2760     1.1300 o          1 S62      -0.690533
     14 S28         -4.1660    -0.5120     0.2080 s6         1 S62       1.273100
     15 O30         -4.9410     0.6330     0.7120 o          1 S62      -0.705867
     16 O32         -4.4310    -0.8980    -1.1860 o          1 S62      -0.705867
     17 O34         -3.9590    -1.6250     1.1480 o          1 S62      -0.705867
     18 H1          -1.4640    -1.7190     0.3580 ha         1 S62       0.143000
     19 H4          -0.8190     3.1610    -0.4880 ha         1 S62       0.092000
     20 H5          -3.1260     2.2430    -0.2860 ha         1 S62       0.111000
@<TRIPOS>BOND
     1     1     2 ar  
     2     1     6 ar  
     3     1    18 1   
     4     2     3 ar  
     5     2     9 1   
     6     3     4 ar  
     7     3     7 1   
     8     4     5 ar  
     9     4    19 1   
    10     5     6 ar  
    11     5    20 1   
    12     6    14 1   
    13     7     8 1   
    14     8     9 2   
    15     8    10 1   
    16    10    11 1   
    17    10    12 1   
    18    10    13 1   
    19    14    15 1   
    20    14    16 1   
    21    14    17 1   
@<TRIPOS>SUBSTRUCTURE
     1 S62         1 TEMP              0 ****  ****    0 ROOT
