@<TRIPOS>MOLECULE
S63
   37    39     1     0     0
SMALL
abcg2


@<TRIPOS>ATOM
      1 C18        -49.8250   -27.2990    -2.0580 ca         1 S63      -0.200000
      2 C16        -48.5410   -27.2910    -1.5350 ca         1 S63       0.213000
      3 C15        -47.9870   -26.0900    -1.1020 ca         1 S63      -0.111800
      4 C14        -48.8270   -24.9430    -1.2440 ca         1 S63       0.376500
      5 C12        -46.8880   -24.2910    -0.3400 cc         1 S63      -0.152100
      6 C11        -46.7520   -25.6410    -0.5220 cd         1 S63      -0.077400
      7 C10        -45.5580   -26.4620    -0.1690 c3         1 S63      -0.089200
      8 C19        -50.5360   -26.0960    -2.1390 ca         1 S63       0.356900
      9 C01        -45.1170   -31.5280     0.6460 c3         1 S63      -0.054100
     10 C02        -44.2920   -30.6810     1.6170 c5         1 S63      -0.191000
     11 C03        -43.7070   -31.5180     2.7940 c          1 S63       0.722000
     12 C06        -43.1600   -29.9470     0.8630 c5         1 S63      -0.074400
     13 C07        -43.8500   -28.7640     0.1850 c5         1 S63       0.098000
     14 C09        -45.8090   -27.4250     0.9910 c          1 S63       0.595100
     15 C22        -45.1300   -29.4960     2.1230 c5         1 S63       0.112000
     16 N08        -44.9730   -28.4680     1.0860 n          1 S63      -0.402800
     17 N13        -48.1280   -23.8690    -0.7720 na         1 S63      -0.337400
     18 N20        -50.0590   -24.9150    -1.7410 nb         1 S63      -0.696000
     19 O04        -43.1600   -30.8730     3.7260 o          1 S63      -0.724000
     20 O05        -43.7990   -32.7680     2.7230 o          1 S63      -0.724000
     21 O21        -46.7230   -27.2390     1.8030 o          1 S63      -0.631100
     22 CL17       -47.6420   -28.7850    -1.4350 cl         1 S63      -0.176000
     23 H181       -50.2770   -28.2190    -2.4010 ha         1 S63       0.132000
     24 H121       -46.1840   -23.5870     0.0720 h4         1 S63       0.215000
     25 H101       -45.2080   -27.0220    -1.0360 hc         1 S63       0.059200
     26 H102       -44.7350   -25.8040     0.1250 hc         1 S63       0.059200
     27 H191       -51.5390   -26.1010    -2.5480 h4         1 S63       0.013100
     28 H013       -45.9450   -32.0140     1.1650 hc         1 S63       0.019033
     29 H011       -45.5350   -30.9100    -0.1520 hc         1 S63       0.019033
     30 H012       -44.5020   -32.3040     0.1910 hc         1 S63       0.019033
     31 H062       -42.6550   -30.5930     0.1440 hc         1 S63       0.054700
     32 H061       -42.4250   -29.5870     1.5830 hc         1 S63       0.054700
     33 H072       -43.1890   -27.9030     0.0850 h1         1 S63       0.021200
     34 H071       -44.2200   -29.0260    -0.8090 h1         1 S63       0.021200
     35 H222       -44.7480   -29.1330     3.0780 h1         1 S63       0.063700
     36 H221       -46.1840   -29.7460     2.2400 h1         1 S63       0.063700
     37 H131       -48.4670   -22.9200    -0.7530 hn         1 S63       0.356000
@<TRIPOS>BOND
     1     1     2 ar  
     2     1     8 ar  
     3     1    23 1   
     4     2     3 ar  
     5     2    22 1   
     6     3     4 ar  
     7     3     6 1   
     8     4    17 1   
     9     4    18 ar  
    10     5     6 2   
    11     5    17 1   
    12     5    24 1   
    13     6     7 1   
    14     7    14 1   
    15     7    25 1   
    16     7    26 1   
    17     8    18 ar  
    18     8    27 1   
    19     9    10 1   
    20     9    28 1   
    21     9    29 1   
    22     9    30 1   
    23    10    11 1   
    24    10    12 1   
    25    10    15 1   
    26    11    19 1   
    27    11    20 1   
    28    12    13 1   
    29    12    31 1   
    30    12    32 1   
    31    13    16 1   
    32    13    33 1   
    33    13    34 1   
    34    14    16 1   
    35    14    21 2   
    36    15    16 1   
    37    15    35 1   
    38    15    36 1   
    39    17    37 1   
@<TRIPOS>SUBSTRUCTURE
     1 S63         1 TEMP              0 ****  ****    0 ROOT
