@<TRIPOS>MOLECULE
S63
   37    39     1     0     0
SMALL
No Charge or Current Charge


@<TRIPOS>ATOM
      1 C18        -49.6930   -27.3950    -2.0900 ca         1 S63      -0.200000
      2 C16        -48.4000   -27.2930    -1.5550 ca         1 S63       0.213000
      3 C15        -47.9930   -26.0220    -1.1160 ca         1 S63      -0.111800
      4 C14        -48.8450   -24.9450    -1.2200 ca         1 S63       0.376500
      5 C12        -46.8900   -24.1690    -0.2770 cc         1 S63      -0.152100
      6 C11        -46.7620   -25.5280    -0.5190 cd         1 S63      -0.077400
      7 C10        -45.5180   -26.3240    -0.1940 c3         1 S63      -0.089200
      8 C19        -50.4990   -26.2440    -2.1580 ca         1 S63       0.356900
      9 C01        -45.3480   -31.5620     0.7390 c3         1 S63      -0.054100
     10 C02        -44.3690   -30.7050     1.5900 c5         1 S63      -0.191000
     11 C03        -43.7970   -31.5760     2.7550 c          1 S63       0.722000
     12 C06        -43.2170   -30.0520     0.7570 c5         1 S63      -0.074400
     13 C07        -43.9270   -28.8670     0.0510 c5         1 S63       0.098000
     14 C09        -45.6220   -27.2390     1.0480 c          1 S63       0.595100
     15 C22        -45.0310   -29.4230     2.1830 c5         1 S63       0.112000
     16 N08        -44.9410   -28.4750     1.0520 n          1 S63      -0.402800
     17 N13        -48.1870   -23.8430    -0.7210 na         1 S63      -0.337400
     18 N20        -50.0870   -25.0250    -1.7300 nb         1 S63      -0.696000
     19 O04        -44.3770   -31.5880     3.8320 o          1 S63      -0.724000
     20 O05        -42.7320   -32.1570     2.6020 o          1 S63      -0.724000
     21 O21        -46.2700   -26.8930     2.0300 o          1 S63      -0.631100
     22 Cl17       -47.3810   -28.7250    -1.4690 cl         1 S63      -0.176000
     23 H181       -50.0710   -28.3470    -2.4480 ha         1 S63       0.132000
     24 H121       -46.2000   -23.4490     0.1550 h4         1 S63       0.215000
     25 H101       -45.1870   -26.8940    -1.0670 hc         1 S63       0.059200
     26 H102       -44.6760   -25.6490    -0.0050 hc         1 S63       0.059200
     27 H191       -51.5070   -26.2970    -2.5690 h4         1 S63       0.013100
     28 H013       -46.1640   -31.9550     1.3570 hc         1 S63       0.019033
     29 H011       -45.8020   -30.9850    -0.0750 hc         1 S63       0.019033
     30 H012       -44.8300   -32.4180     0.2900 hc         1 S63       0.019033
     31 H062       -42.7520   -30.7440     0.0460 hc         1 S63       0.054700
     32 H061       -42.4190   -29.6770     1.4100 hc         1 S63       0.054700
     33 H072       -43.2270   -28.0520    -0.1750 h1         1 S63       0.021200
     34 H071       -44.4080   -29.1870    -0.8820 h1         1 S63       0.021200
     35 H222       -44.4710   -29.0330     3.0450 h1         1 S63       0.063700
     36 H221       -46.0680   -29.6000     2.4980 h1         1 S63       0.063700
     37 H131       -48.6060   -22.9220    -0.6870 hn         1 S63       0.356000
@<TRIPOS>BOND
     1     1     2 ar  
     2     1     8 ar  
     3     1    23 1   
     4     2     3 ar  
     5     2    22 1   
     6     3     4 ar  
     7     3     6 1   
     8     4    17 1   
     9     4    18 ar  
    10     5     6 2   
    11     5    17 1   
    12     5    24 1   
    13     6     7 1   
    14     7    14 1   
    15     7    25 1   
    16     7    26 1   
    17     8    18 ar  
    18     8    27 1   
    19     9    10 1   
    20     9    28 1   
    21     9    29 1   
    22     9    30 1   
    23    10    11 1   
    24    10    12 1   
    25    10    15 1   
    26    11    19 1   
    27    11    20 1   
    28    12    13 1   
    29    12    31 1   
    30    12    32 1   
    31    13    16 1   
    32    13    33 1   
    33    13    34 1   
    34    14    16 1   
    35    14    21 2   
    36    15    16 1   
    37    15    35 1   
    38    15    36 1   
    39    17    37 1   
@<TRIPOS>SUBSTRUCTURE
     1 S63         1 TEMP              0 ****  ****    0 ROOT
