@<TRIPOS>MOLECULE
S64
   34    36     1     0     0
SMALL
abcg2


@<TRIPOS>ATOM
      1 C10        -27.5660    98.6120   139.4120 c6         1 S64      -0.089400
      2 C13        -26.2540   102.3700   139.1010 c5         1 S64       0.073600
      3 C15        -26.8220   100.3700   137.8490 c5         1 S64      -0.161000
      4 C17        -27.1380   101.4150   133.4420 ca         1 S64      -0.179000
      5 C01        -25.4860   100.0280   130.5190 c3         1 S64       0.148900
      6 C03        -26.4510   100.5070   132.6330 ca         1 S64       0.151100
      7 C04        -26.0610    99.2810   133.1670 ca         1 S64      -0.179000
      8 C05        -26.3610    98.9810   134.4900 ca         1 S64      -0.047500
      9 C06        -27.0250    99.8840   135.3120 ca         1 S64      -0.170900
     10 C07        -27.3320    99.5060   136.7150 ce         1 S64       0.490900
     11 C09        -28.2000    97.8830   138.2240 c6         1 S64       0.102800
     12 C11        -27.6240   100.0890   139.1070 c5         1 S64       0.081300
     13 C14        -26.7580   101.8890   137.7380 c5         1 S64      -0.067400
     14 C16        -27.4100   101.1080   134.7610 ca         1 S64      -0.047500
     15 N08        -27.9080    98.3900   136.9000 n2         1 S64      -0.587900
     16 S12        -26.9070   101.2000   140.3610 ss         1 S64      -0.457000
     17 H1         -28.1060    98.3530   140.3240 hc         1 S64       0.060700
     18 H2         -26.5250    98.3080   139.5510 hc         1 S64       0.060700
     19 H3         -25.1660   102.3550   139.1430 h1         1 S64       0.069700
     20 H4         -26.5910   103.3800   139.3270 h1         1 S64       0.069700
     21 H5         -25.7910   100.0270   138.0200 hc         1 S64       0.077700
     22 H6         -27.4590   102.3620   133.0270 ha         1 S64       0.123500
     23 H7         -25.3800   100.5450   129.5690 h1         1 S64       0.041700
     24 H8         -24.4900    99.8110   130.9130 h1         1 S64       0.041700
     25 H9         -26.0120    99.0860   130.3500 h1         1 S64       0.041700
     26 H10        -25.5240    98.5500   132.5780 ha         1 S64       0.123500
     27 H11        -26.0560    98.0220   134.8900 ha         1 S64       0.118000
     28 H13        -29.2900    97.8920   138.3300 h1         1 S64       0.065700
     29 H14        -28.6660   100.3840   138.9430 h1         1 S64       0.077700
     30 H15        -26.0860   102.2320   136.9520 hc         1 S64       0.061200
     31 H16        -27.7490   102.3020   137.5400 hc         1 S64       0.061200
     32 H17        -27.9560   101.8280   135.3550 ha         1 S64       0.118000
     33 H12        -27.9190    96.8270   138.2390 h1         1 S64       0.065700
     34 O02        -26.2110   100.8960   131.3690 os         1 S64      -0.341100
@<TRIPOS>BOND
     1     1    11 1   
     2     1    12 1   
     3     1    17 1   
     4     1    18 1   
     5     2    13 1   
     6     2    16 1   
     7     2    19 1   
     8     2    20 1   
     9     3    10 1   
    10     3    12 1   
    11     3    13 1   
    12     3    21 1   
    13     4     6 ar  
    14     4    14 ar  
    15     4    22 1   
    16     5    23 1   
    17     5    24 1   
    18     5    25 1   
    19     5    34 1   
    20     6     7 ar  
    21     6    34 1   
    22     7     8 ar  
    23     7    26 1   
    24     8     9 ar  
    25     8    27 1   
    26     9    10 1   
    27     9    14 ar  
    28    10    15 2   
    29    11    15 1   
    30    11    28 1   
    31    11    33 1   
    32    12    16 1   
    33    12    29 1   
    34    13    30 1   
    35    13    31 1   
    36    14    32 1   
@<TRIPOS>SUBSTRUCTURE
     1 S64         1 TEMP              0 ****  ****    0 ROOT
