@<TRIPOS>MOLECULE
S64
   34    36     1     0     0
SMALL
No Charge or Current Charge


@<TRIPOS>ATOM
      1 C10        -27.6040    98.5800   139.4550 c6         1 S64      -0.089400
      2 C13        -26.1440   102.3290   139.1000 c5         1 S64       0.073600
      3 C15        -26.7250   100.3130   137.8910 c5         1 S64      -0.161000
      4 C17        -27.2660   101.4160   133.3520 ca         1 S64      -0.179000
      5 C01        -25.3860   100.0260   130.4480 c3         1 S64       0.148900
      6 C03        -26.4730   100.5310   132.6060 ca         1 S64       0.151100
      7 C04        -26.0060    99.3440   133.2080 ca         1 S64      -0.179000
      8 C05        -26.3300    99.0570   134.5450 ca         1 S64      -0.047500
      9 C06        -27.1120    99.9550   135.3000 ca         1 S64      -0.170900
     10 C07        -27.4630    99.6340   136.7140 ce         1 S64       0.490900
     11 C09        -28.2750    97.8660   138.2610 c6         1 S64       0.102800
     12 C11        -27.5720   100.0750   139.1570 c5         1 S64       0.081300
     13 C14        -26.7730   101.8630   137.7530 c5         1 S64      -0.067400
     14 C16        -27.5910   101.1310   134.6890 ca         1 S64      -0.047500
     15 N08        -28.1050    98.5120   136.9290 n2         1 S64      -0.587900
     16 S12        -26.7780   101.1680   140.4220 ss         1 S64      -0.457000
     17 H1         -28.1500    98.3740   140.3850 hc         1 S64       0.060700
     18 H2         -26.5800    98.2050   139.5910 hc         1 S64       0.060700
     19 H3         -25.0490   102.2580   139.0660 h1         1 S64       0.069700
     20 H4         -26.4060   103.3690   139.3380 h1         1 S64       0.069700
     21 H5         -25.7020    99.9300   137.9870 hc         1 S64       0.077700
     22 H6         -27.6360   102.3280   132.8890 ha         1 S64       0.123500
     23 H7         -25.2830   100.4790   129.4540 h1         1 S64       0.041700
     24 H8         -24.3800    99.8960   130.8670 h1         1 S64       0.041700
     25 H9         -25.8480    99.0390   130.3260 h1         1 S64       0.041700
     26 H10        -25.3950    98.6340   132.6570 ha         1 S64       0.123500
     27 H11        -25.9670    98.1370   135.0010 ha         1 S64       0.118000
     28 H13        -29.3560    97.8140   138.4580 h1         1 S64       0.065700
     29 H14        -28.6060   100.4210   139.0110 h1         1 S64       0.077700
     30 H15        -26.1950   102.2330   136.8980 hc         1 S64       0.061200
     31 H16        -27.7980   102.2380   137.6430 hc         1 S64       0.061200
     32 H17        -28.2210   101.8230   135.2450 ha         1 S64       0.118000
     33 H12        -27.9170    96.8280   138.2070 h1         1 S64       0.065700
     34 O02        -26.1890   100.8660   131.2980 os         1 S64      -0.341100
@<TRIPOS>BOND
     1     1    11 1   
     2     1    12 1   
     3     1    17 1   
     4     1    18 1   
     5     2    13 1   
     6     2    16 1   
     7     2    19 1   
     8     2    20 1   
     9     3    10 1   
    10     3    12 1   
    11     3    13 1   
    12     3    21 1   
    13     4     6 ar  
    14     4    14 ar  
    15     4    22 1   
    16     5    23 1   
    17     5    24 1   
    18     5    25 1   
    19     5    34 1   
    20     6     7 ar  
    21     6    34 1   
    22     7     8 ar  
    23     7    26 1   
    24     8     9 ar  
    25     8    27 1   
    26     9    10 1   
    27     9    14 ar  
    28    10    15 2   
    29    11    15 1   
    30    11    28 1   
    31    11    33 1   
    32    12    16 1   
    33    12    29 1   
    34    13    30 1   
    35    13    31 1   
    36    14    32 1   
@<TRIPOS>SUBSTRUCTURE
     1 S64         1 TEMP              0 ****  ****    0 ROOT
