@<TRIPOS>MOLECULE
S65
   23    26     1     0     0
SMALL
abcg2


@<TRIPOS>ATOM
      1 C1           8.3540    73.4380    -1.3690 cx         1 S65       0.093300
      2 C2           8.8730    72.5130    -2.4410 c5         1 S65      -0.067700
      3 C3           8.9500    73.3570    -3.7460 c5         1 S65      -0.075700
      4 C4           8.4270    74.7660    -3.4240 c5         1 S65       0.146300
      5 C5          10.4300    73.2010    -4.1670 c5         1 S65       0.165200
      6 C6          11.3070    73.8570    -3.1250 c2         1 S65       0.042800
      7 C7          11.2460    73.1160    -2.0250 c2         1 S65       0.077800
      8 C8          10.3140    71.9580    -2.3090 c5         1 S65       0.166200
      9 C9          10.6780    71.7180    -3.7930 c5         1 S65       0.292000
     10 C            8.0320    74.7360    -1.9620 cx         1 S65       0.079300
     11 O            9.1550    74.5790    -1.1230 op         1 S65      -0.411000
     12 CL           6.9670    75.1330    -4.4030 cl         1 S65      -0.252000
     13 CL1         10.7750    73.6410    -5.8210 cl         1 S65      -0.158000
     14 CL2         12.0790    75.3430    -3.3390 cl         1 S65      -0.093000
     15 CL3         11.9470    73.4150    -0.5220 cl         1 S65      -0.081000
     16 CL4         10.4850    70.5800    -1.2500 cl         1 S65      -0.161000
     17 CL5         12.3390    71.1900    -4.0440 cl         1 S65      -0.168000
     18 CL6          9.6200    70.5760    -4.6150 cl         1 S65      -0.168000
     19 H1           7.8230    73.0260    -0.5180 h1         1 S65       0.120700
     20 H2           8.1700    71.6860    -2.5520 hc         1 S65       0.103700
     21 H3           8.3270    72.9070    -4.5160 hc         1 S65       0.109700
     22 H4           9.1390    75.5650    -3.6310 h1         1 S65       0.111700
     23 H5           7.2420    75.3870    -1.6030 h1         1 S65       0.125700
@<TRIPOS>BOND
     1     1     2 1   
     2     1    10 1   
     3     1    11 1   
     4     1    19 1   
     5     2     3 1   
     6     2     8 1   
     7     2    20 1   
     8     3     4 1   
     9     3     5 1   
    10     3    21 1   
    11     4    10 1   
    12     4    12 1   
    13     4    22 1   
    14     5     6 1   
    15     5     9 1   
    16     5    13 1   
    17     6     7 2   
    18     6    14 1   
    19     7     8 1   
    20     7    15 1   
    21     8     9 1   
    22     8    16 1   
    23     9    17 1   
    24     9    18 1   
    25    10    11 1   
    26    10    23 1   
@<TRIPOS>SUBSTRUCTURE
     1 S65         1 TEMP              0 ****  ****    0 ROOT
