@<TRIPOS>MOLECULE
S65
   23    26     1     0     0
SMALL
No Charge or Current Charge


@<TRIPOS>ATOM
      1 C1           8.3560    73.4060    -1.3120 cx         1 S65       0.093300
      2 C2           8.8220    72.4620    -2.4460 c5         1 S65      -0.067700
      3 C3           8.8650    73.3080    -3.7670 c5         1 S65      -0.075700
      4 C4           8.4480    74.7810    -3.4230 c5         1 S65       0.146300
      5 C5          10.3880    73.2100    -4.1840 c5         1 S65       0.165200
      6 C6          11.2560    73.9040    -3.1370 c2         1 S65       0.042800
      7 C7          11.2320    73.1650    -2.0270 c2         1 S65       0.077800
      8 C8          10.3200    71.9710    -2.2800 c5         1 S65       0.166200
      9 C9          10.6710    71.7140    -3.7910 c5         1 S65       0.292000
     10 C            7.9970    74.7190    -1.9520 cx         1 S65       0.079300
     11 O            9.0810    74.6200    -1.0080 op         1 S65      -0.411000
     12 Cl           7.1480    75.4130    -4.5250 cl         1 S65      -0.252000
     13 Cl1         10.7240    73.6560    -5.9150 cl         1 S65      -0.158000
     14 Cl2         12.1750    75.3710    -3.3730 cl         1 S65      -0.093000
     15 Cl3         12.1200    73.4880    -0.5570 cl         1 S65      -0.081000
     16 Cl4         10.5330    70.5550    -1.1580 cl         1 S65      -0.161000
     17 Cl5         12.4060    71.2030    -4.0600 cl         1 S65      -0.168000
     18 Cl6          9.6640    70.4480    -4.6510 cl         1 S65      -0.168000
     19 H1           7.7460    73.0250    -0.4900 h1         1 S65       0.120700
     20 H2           8.1300    71.6160    -2.5430 hc         1 S65       0.103700
     21 H3           8.2050    72.8820    -4.5340 hc         1 S65       0.109700
     22 H4           9.2650    75.5000    -3.5610 h1         1 S65       0.111700
     23 H5           7.1240    75.2710    -1.6020 h1         1 S65       0.125700
@<TRIPOS>BOND
     1     1     2 1   
     2     1    10 1   
     3     1    11 1   
     4     1    19 1   
     5     2     3 1   
     6     2     8 1   
     7     2    20 1   
     8     3     4 1   
     9     3     5 1   
    10     3    21 1   
    11     4    10 1   
    12     4    12 1   
    13     4    22 1   
    14     5     6 1   
    15     5     9 1   
    16     5    13 1   
    17     6     7 2   
    18     6    14 1   
    19     7     8 1   
    20     7    15 1   
    21     8     9 1   
    22     8    16 1   
    23     9    17 1   
    24     9    18 1   
    25    10    11 1   
    26    10    23 1   
@<TRIPOS>SUBSTRUCTURE
     1 S65         1 TEMP              0 ****  ****    0 ROOT
