@<TRIPOS>MOLECULE
S68
   25    27     1     0     0
SMALL
No Charge or Current Charge


@<TRIPOS>ATOM
      1 CAH          8.5600    74.6460    -4.2250 c3         1 S68       0.176600
      2 CAI          8.9580    73.9360    -1.3760 c3         1 S68       0.176600
      3 CAL         10.2460    72.1460    -4.2350 c2         1 S68       0.047800
      4 CAM         10.4240    71.8260    -2.9530 c2         1 S68       0.047800
      5 CAN         10.0260    74.5700    -3.7310 c5         1 S68      -0.090700
      6 CAO         10.2380    74.1910    -2.2080 c5         1 S68      -0.090700
      7 CAQ         12.1290    73.3890    -3.4950 c5         1 S68       0.295000
      8 CAR         10.9110    73.4960    -4.4710 c5         1 S68       0.155700
      9 CAS         11.2130    72.9560    -2.3020 c5         1 S68       0.155700
     10 OAJ          7.9370    75.7990    -3.6380 os         1 S68      -0.446300
     11 OAK          8.2790    75.1870    -1.1820 os         1 S68      -0.446300
     12 SAP          7.0020    75.5870    -2.2320 s4         1 S68       0.888600
     13 Cl1          9.3850    71.2000    -5.4240 cl         1 S68      -0.087000
     14 Cl2          9.8400    70.3860    -2.1580 cl         1 S68      -0.087000
     15 Cl3         13.1060    74.9160    -3.2510 cl         1 S68      -0.165000
     16 Cl4         13.3380    72.1090    -3.9820 cl         1 S68      -0.165000
     17 Cl5         11.3110    73.8970    -6.2000 cl         1 S68      -0.160000
     18 Cl6         12.0710    72.5400    -0.7530 cl         1 S68      -0.160000
     19 H1           8.5790    74.7670    -5.3160 h1         1 S68       0.075450
     20 H2           8.0110    73.7180    -4.0180 h1         1 S68       0.075450
     21 H3           8.3150    73.1740    -1.8380 h1         1 S68       0.075450
     22 H4           9.2650    73.5410    -0.3980 h1         1 S68       0.075450
     23 H5          10.4340    75.5710    -3.9220 hc         1 S68       0.103700
     24 H6          10.7450    75.0150    -1.6900 hc         1 S68       0.103700
     25 OAA          6.1410    74.3550    -2.4190 o          1 S68      -0.555000
@<TRIPOS>BOND
     1     1     5 1   
     2     1    10 1   
     3     1    19 1   
     4     1    20 1   
     5     2     6 1   
     6     2    11 1   
     7     2    21 1   
     8     2    22 1   
     9     3     4 2   
    10     3     8 1   
    11     3    13 1   
    12     4     9 1   
    13     4    14 1   
    14     5     6 1   
    15     5     8 1   
    16     5    23 1   
    17     6     9 1   
    18     6    24 1   
    19     7     8 1   
    20     7     9 1   
    21     7    15 1   
    22     7    16 1   
    23     8    17 1   
    24     9    18 1   
    25    10    12 1   
    26    11    12 1   
    27    12    25 2   
@<TRIPOS>SUBSTRUCTURE
     1 S68         1 TEMP              0 ****  ****    0 ROOT
