@<TRIPOS>MOLECULE
S68
   25    27     1     0     0
SMALL
bcc


@<TRIPOS>ATOM
      1 CAH          8.6070    74.6380    -4.2320 c3         1 S68       0.153400
      2 CAI          9.0020    73.9160    -1.3920 c3         1 S68       0.153400
      3 CAL         10.2280    72.1660    -4.2200 c2         1 S68      -0.027800
      4 CAM         10.4080    71.8510    -2.9420 c2         1 S68      -0.027800
      5 CAN         10.0350    74.5820    -3.7190 c5         1 S68      -0.090700
      6 CAO         10.2450    74.2090    -2.2150 c5         1 S68      -0.090700
      7 CAQ         12.0920    73.3640    -3.4970 c5         1 S68       0.141800
      8 CAR         10.8870    73.5110    -4.4490 c5         1 S68       0.079100
      9 CAS         11.1900    72.9830    -2.3060 c5         1 S68       0.079100
     10 OAJ          7.9200    75.7370    -3.6180 os         1 S68      -0.423100
     11 OAK          8.2460    75.1200    -1.2130 os         1 S68      -0.423100
     12 SAP          7.0470    75.4800    -2.2620 s4         1 S68       0.861800
     13 CL1          9.3520    71.3270    -5.3930 cl         1 S68      -0.011400
     14 CL2          9.8180    70.5160    -2.0960 cl         1 S68      -0.011400
     15 CL3         13.0090    74.8450    -3.2600 cl         1 S68      -0.088400
     16 CL4         13.2170    72.0940    -3.9690 cl         1 S68      -0.088400
     17 CL5         11.2780    73.8830    -6.1100 cl         1 S68      -0.083400
     18 CL6         12.0240    72.5800    -0.8260 cl         1 S68      -0.083400
     19 H1           8.6070    74.8490    -5.3010 h1         1 S68       0.075450
     20 H2           8.0540    73.7080    -4.0840 h1         1 S68       0.075450
     21 H3           8.3800    73.1280    -1.8240 h1         1 S68       0.075450
     22 H4           9.2870    73.5940    -0.3910 h1         1 S68       0.075450
     23 H5          10.4820    75.5600    -3.9060 hc         1 S68       0.103700
     24 H6          10.7840    75.0200    -1.7230 hc         1 S68       0.103700
     25 OAA          6.2680    74.2570    -2.4700 o          1 S68      -0.528200
@<TRIPOS>BOND
     1     1     5 1   
     2     1    10 1   
     3     1    19 1   
     4     1    20 1   
     5     2     6 1   
     6     2    11 1   
     7     2    21 1   
     8     2    22 1   
     9     3     4 2   
    10     3     8 1   
    11     3    13 1   
    12     4     9 1   
    13     4    14 1   
    14     5     6 1   
    15     5     8 1   
    16     5    23 1   
    17     6     9 1   
    18     6    24 1   
    19     7     8 1   
    20     7     9 1   
    21     7    15 1   
    22     7    16 1   
    23     8    17 1   
    24     9    18 1   
    25    10    12 1   
    26    11    12 1   
    27    12    25 2   
@<TRIPOS>SUBSTRUCTURE
     1 S68         1 TEMP              0 ****  ****    0 ROOT
