@<TRIPOS>MOLECULE
S69
   41    42     1     0     0
SMALL
abcg2


@<TRIPOS>ATOM
      1 C1          -3.5110     0.8770     0.1950 ca         1 S69      -0.046300
      2 C2          -2.2960     1.4280     0.8840 c3         1 S69      -0.112100
      3 C3          -1.1060     0.5010     0.7310 c          1 S69       0.618100
      4 O4          -1.1890    -0.7070     0.8230 o          1 S69      -0.537100
      5 N5           0.0670     1.1450     0.5070 ns         1 S69      -0.275900
      6 N6           1.2100     0.4430     0.4100 n2         1 S69      -0.500300
      7 C7           2.3100     1.0620     0.2130 ce         1 S69       0.433800
      8 C8           3.5600     0.3380     0.1040 ca         1 S69      -0.299900
      9 C9          -3.7780     1.2110    -1.1330 ca         1 S69      -0.141000
     10 C10         -4.8870     0.6750    -1.7650 ca         1 S69      -0.072000
     11 C11         -5.7450    -0.1950    -1.1000 ca         1 S69      -0.191000
     12 C12         -5.4800    -0.5270     0.2260 ca         1 S69       0.143100
     13 O13         -6.2430    -1.3510     0.9700 os         1 S69      -0.340100
     14 C14         -7.3940    -1.9210     0.3810 c3         1 S69       0.148900
     15 C15         -4.3600     0.0110     0.8640 ca         1 S69      -0.118000
     16 C16          4.7690     1.0290    -0.1190 ca         1 S69       0.027700
     17 C17          4.7960     2.5260    -0.2510 c3         1 S69      -0.056800
     18 C18          5.9570     0.3320    -0.2180 ca         1 S69      -0.203000
     19 C19          5.9730    -1.0610    -0.0980 ca         1 S69       0.204100
     20 O20          7.1620    -1.6730    -0.2030 oh         1 S69      -0.529100
     21 C21          4.7970    -1.7600     0.1180 ca         1 S69      -0.279000
     22 C22          3.5920    -1.0710     0.2190 ca         1 S69       0.250100
     23 O23          2.4920    -1.7930     0.4280 oh         1 S69      -0.543100
     24 H2          -2.0640     2.4280     0.5130 hc         1 S69       0.066700
     25 H2A         -2.4820     1.5320     1.9570 hc         1 S69       0.066700
     26 HN5          0.0940     2.1550     0.4310 hn         1 S69       0.307500
     27 H7           2.3310     2.1480     0.1260 h4         1 S69      -0.013200
     28 H9          -3.1250     1.8910    -1.6650 ha         1 S69       0.110000
     29 H10         -5.0980     0.9350    -2.7940 ha         1 S69       0.112000
     30 H11         -6.6030    -0.5920    -1.6250 ha         1 S69       0.118000
     31 H14         -7.8600    -2.5390     1.1450 h1         1 S69       0.040700
     32 H14A        -8.1100    -1.1590     0.0610 h1         1 S69       0.040700
     33 H14B        -7.1460    -2.5530    -0.4770 h1         1 S69       0.040700
     34 H15         -4.1680    -0.2510     1.8980 ha         1 S69       0.132000
     35 H17          4.4570     3.0200     0.6620 hc         1 S69       0.045367
     36 H17A         5.8070     2.8730    -0.4540 hc         1 S69       0.045367
     37 H17B         4.1610     2.8780    -1.0650 hc         1 S69       0.045367
     38 H18          6.8860     0.8610    -0.3930 ha         1 S69       0.130000
     39 HO20         7.0630    -2.6270    -0.1090 ho         1 S69       0.471000
     40 H21          4.7980    -2.8410     0.2090 ha         1 S69       0.133000
     41 HO23         1.7130    -1.1870     0.4800 ho         1 S69       0.526000
@<TRIPOS>BOND
     1     1     2 1   
     2     1     9 ar  
     3     1    15 ar  
     4     2     3 1   
     5     2    24 1   
     6     2    25 1   
     7     3     4 2   
     8     3     5 1   
     9     5     6 1   
    10     5    26 1   
    11     6     7 2   
    12     7     8 1   
    13     7    27 1   
    14     8    16 ar  
    15     8    22 ar  
    16     9    10 ar  
    17     9    28 1   
    18    10    11 ar  
    19    10    29 1   
    20    11    12 ar  
    21    11    30 1   
    22    12    13 1   
    23    12    15 ar  
    24    13    14 1   
    25    14    31 1   
    26    14    32 1   
    27    14    33 1   
    28    15    34 1   
    29    16    17 1   
    30    16    18 ar  
    31    17    35 1   
    32    17    36 1   
    33    17    37 1   
    34    18    19 ar  
    35    18    38 1   
    36    19    20 1   
    37    19    21 ar  
    38    20    39 1   
    39    21    22 ar  
    40    21    40 1   
    41    22    23 1   
    42    23    41 1   
@<TRIPOS>SUBSTRUCTURE
     1 S69         1 TEMP              0 ****  ****    0 ROOT
