@<TRIPOS>MOLECULE
S69
   41    42     1     0     0
SMALL
No Charge or Current Charge


@<TRIPOS>ATOM
      1 C1          -3.4480     1.0630    -0.0350 ca         1 S69      -0.046300
      2 C2          -2.2610     1.9080     0.4140 c3         1 S69      -0.112100
      3 C3          -0.9890     1.0540     0.5020 c          1 S69       0.618100
      4 O4          -0.7800     0.2930     1.4400 o          1 S69      -0.537100
      5 N5          -0.0990     1.2080    -0.5610 ns         1 S69      -0.275900
      6 N6           1.1010     0.5190    -0.6770 n2         1 S69      -0.500300
      7 C7           2.1600     0.9690    -0.0700 ce         1 S69       0.433800
      8 C8           3.4790     0.2460    -0.1160 ca         1 S69      -0.299900
      9 C9          -3.7600     0.9450    -1.4030 ca         1 S69      -0.141000
     10 C10         -4.8510     0.1640    -1.8160 ca         1 S69      -0.072000
     11 C11         -5.6400    -0.5060    -0.8660 ca         1 S69      -0.191000
     12 C12         -5.3340    -0.3950     0.5080 ca         1 S69       0.143100
     13 O13         -6.0710    -1.0300     1.4870 os         1 S69      -0.340100
     14 C14         -7.2090    -1.8550     1.1780 c3         1 S69       0.148900
     15 C15         -4.2410     0.3890     0.9130 ca         1 S69      -0.118000
     16 C16          4.6150     0.8160     0.5200 ca         1 S69       0.027700
     17 C17          4.5440     2.1510     1.2580 c3         1 S69      -0.056800
     18 C18          5.8500     0.1440     0.4770 ca         1 S69      -0.203000
     19 C19          5.9770    -1.0790    -0.1840 ca         1 S69       0.204100
     20 O20          7.1810    -1.7110    -0.2130 oh         1 S69      -0.529100
     21 C21          4.8710    -1.6480    -0.8140 ca         1 S69      -0.279000
     22 C22          3.6350    -0.9950    -0.7830 ca         1 S69       0.250100
     23 O23          2.5930    -1.5960    -1.4100 oh         1 S69      -0.543100
     24 H2          -2.1110     2.7260    -0.3010 hc         1 S69       0.066700
     25 H2A         -2.4660     2.3310     1.4040 hc         1 S69       0.066700
     26 HN5         -0.3870     1.8680    -1.2800 hn         1 S69       0.307500
     27 H7           2.1060     1.8980     0.4990 h4         1 S69      -0.013200
     28 H9          -3.1570     1.4580    -2.1490 ha         1 S69       0.110000
     29 H10         -5.0860     0.0780    -2.8750 ha         1 S69       0.112000
     30 H11         -6.4780    -1.1040    -1.2120 ha         1 S69       0.118000
     31 H14         -7.6460    -2.2610     2.0980 h1         1 S69       0.040700
     32 H14A        -7.9830    -1.2740     0.6610 h1         1 S69       0.040700
     33 H14B        -6.9160    -2.6990     0.5400 h1         1 S69       0.040700
     34 H15         -4.0090     0.4690     1.9720 ha         1 S69       0.132000
     35 H17          3.8380     2.1030     2.0960 hc         1 S69       0.045367
     36 H17A         5.5170     2.4420     1.6710 hc         1 S69       0.045367
     37 H17B         4.2250     2.9580     0.5870 hc         1 S69       0.045367
     38 H18          6.7230     0.5740     0.9620 ha         1 S69       0.130000
     39 HO20         7.0740    -2.5450    -0.7170 ho         1 S69       0.471000
     40 H21          4.9590    -2.5990    -1.3310 ha         1 S69       0.133000
     41 HO23         1.8240    -0.9840    -1.2870 ho         1 S69       0.526000
@<TRIPOS>BOND
     1     1     2 1   
     2     1     9 ar  
     3     1    15 ar  
     4     2     3 1   
     5     2    24 1   
     6     2    25 1   
     7     3     4 2   
     8     3     5 1   
     9     5     6 1   
    10     5    26 1   
    11     6     7 2   
    12     7     8 1   
    13     7    27 1   
    14     8    16 ar  
    15     8    22 ar  
    16     9    10 ar  
    17     9    28 1   
    18    10    11 ar  
    19    10    29 1   
    20    11    12 ar  
    21    11    30 1   
    22    12    13 1   
    23    12    15 ar  
    24    13    14 1   
    25    14    31 1   
    26    14    32 1   
    27    14    33 1   
    28    15    34 1   
    29    16    17 1   
    30    16    18 ar  
    31    17    35 1   
    32    17    36 1   
    33    17    37 1   
    34    18    19 ar  
    35    18    38 1   
    36    19    20 1   
    37    19    21 ar  
    38    20    39 1   
    39    21    22 ar  
    40    21    40 1   
    41    22    23 1   
    42    23    41 1   
@<TRIPOS>SUBSTRUCTURE
     1 S69         1 TEMP              0 ****  ****    0 ROOT
