@<TRIPOS>MOLECULE
S6B
   23    24     1     0     0
SMALL
abcg2


@<TRIPOS>ATOM
      1 C02         22.3710    21.3670    -0.5810 ca         1 S6B       0.124000
      2 C03         21.6180    21.0850    -1.7080 ca         1 S6B      -0.102000
      3 C04         22.0700    21.4660    -2.9710 ca         1 S6B      -0.070300
      4 C05         21.2140    21.1490    -4.1690 c3         1 S6B       0.205900
      5 C06         23.2870    22.1310    -3.0830 ca         1 S6B      -0.074000
      6 C07         24.0330    22.4230    -1.9480 ca         1 S6B      -0.099000
      7 C08         23.5870    22.0480    -0.6870 ca         1 S6B      -0.002200
      8 C10         24.0630    23.2100     1.4830 cc         1 S6B      -0.205000
      9 C11         25.1380    23.1860     2.3270 cd         1 S6B       0.228900
     10 C13         25.6180    21.8390     0.7230 cc         1 S6B       0.406400
     11 N09         24.3780    22.3440     0.4550 na         1 S6B      -0.091300
     12 N12         26.1030    22.3240     1.8440 nd         1 S6B      -0.671000
     13 CL1         21.7960    20.8280     0.9760 cl         1 S6B      -0.181000
     14 H1          20.6810    20.5540    -1.6000 ha         1 S6B       0.132000
     15 H2          20.9650    20.0810    -4.1570 h1         1 S6B       0.035700
     16 H5          23.6490    22.4290    -4.0550 ha         1 S6B       0.145000
     17 H6          24.9730    22.9530    -2.0280 ha         1 S6B       0.134000
     18 H7          23.1310    23.7460     1.5060 h4         1 S6B       0.161000
     19 H8          25.2730    23.7350     3.2440 h4         1 S6B       0.040100
     20 H9          26.0940    21.1270     0.0680 h5         1 S6B       0.058100
     21 O1          21.8950    21.4950    -5.3680 oh         1 S6B      -0.663000
     22 H3          20.2710    21.7030    -4.0870 h1         1 S6B       0.035700
     23 H4          21.3070    21.3050    -6.1090 ho         1 S6B       0.451000
@<TRIPOS>BOND
     1     1     2 ar  
     2     1     7 ar  
     3     1    13 1   
     4     2     3 ar  
     5     2    14 1   
     6     3     4 1   
     7     3     5 ar  
     8     4    15 1   
     9     4    21 1   
    10     4    22 1   
    11     5     6 ar  
    12     5    16 1   
    13     6     7 ar  
    14     6    17 1   
    15     7    11 1   
    16     8     9 2   
    17     8    11 1   
    18     8    18 1   
    19     9    12 1   
    20     9    19 1   
    21    10    11 1   
    22    10    12 2   
    23    10    20 1   
    24    21    23 1   
@<TRIPOS>SUBSTRUCTURE
     1 S6B         1 TEMP              0 ****  ****    0 ROOT
