@<TRIPOS>MOLECULE
S6B
   23    24     1     0     0
SMALL
No Charge or Current Charge


@<TRIPOS>ATOM
      1 C02         22.4560    21.2520    -0.6130 ca         1 S6B       0.124000
      2 C03         21.6930    21.0380    -1.7730 ca         1 S6B      -0.102000
      3 C04         22.0670    21.6270    -2.9960 ca         1 S6B      -0.070300
      4 C05         21.2340    21.3920    -4.2500 c3         1 S6B       0.205900
      5 C06         23.2200    22.4310    -3.0480 ca         1 S6B      -0.074000
      6 C07         23.9880    22.6480    -1.8910 ca         1 S6B      -0.099000
      7 C08         23.6130    22.0660    -0.6630 ca         1 S6B      -0.002200
      8 C10         23.9510    22.9240     1.6100 cc         1 S6B      -0.205000
      9 C11         25.0820    23.0240     2.3840 cd         1 S6B       0.228900
     10 C13         25.7460    22.0800     0.5450 cc         1 S6B       0.406400
     11 N09         24.3930    22.3010     0.4710 na         1 S6B      -0.091300
     12 N12         26.1890    22.5040     1.7250 nd         1 S6B      -0.671000
     13 Cl1         21.9500    20.4540     0.8790 cl         1 S6B      -0.181000
     14 H1          20.8100    20.4050    -1.7230 ha         1 S6B       0.132000
     15 H2          20.1800    21.2680    -3.9660 h1         1 S6B       0.035700
     16 H5          23.5230    22.8890    -3.9880 ha         1 S6B       0.145000
     17 H6          24.8730    23.2790    -1.9500 ha         1 S6B       0.134000
     18 H7          22.9280    23.2330     1.7810 h4         1 S6B       0.161000
     19 H8          25.1640    23.4520     3.3760 h4         1 S6B       0.040100
     20 H9          26.3220    21.6250    -0.2520 h5         1 S6B       0.058100
     21 O1          21.7040    20.2320    -4.9460 oh         1 S6B      -0.663000
     22 H3          21.2960    22.2780    -4.8970 h1         1 S6B       0.035700
     23 H4          21.1330    20.1280    -5.7400 ho         1 S6B       0.451000
@<TRIPOS>BOND
     1     1     2 ar  
     2     1     7 ar  
     3     1    13 1   
     4     2     3 ar  
     5     2    14 1   
     6     3     4 1   
     7     3     5 ar  
     8     4    15 1   
     9     4    21 1   
    10     4    22 1   
    11     5     6 ar  
    12     5    16 1   
    13     6     7 ar  
    14     6    17 1   
    15     7    11 1   
    16     8     9 2   
    17     8    11 1   
    18     8    18 1   
    19     9    12 1   
    20     9    19 1   
    21    10    11 1   
    22    10    12 2   
    23    10    20 1   
    24    21    23 1   
@<TRIPOS>SUBSTRUCTURE
     1 S6B         1 TEMP              0 ****  ****    0 ROOT
