@<TRIPOS>MOLECULE
S6C
   33    35     1     0     0
SMALL
No Charge or Current Charge


@<TRIPOS>ATOM
      1 C18        -45.8900   -30.1950     2.0960 c6         1 S6C       0.223800
      2 C16        -50.4730   -29.3390     3.1960 ca         1 S6C       0.140900
      3 C14        -49.0340   -28.8830     4.9130 ca         1 S6C       0.242000
      4 C12        -47.2140   -28.5210     6.0550 cc         1 S6C       0.427700
      5 C10        -47.9870   -29.0610     4.0490 ca         1 S6C      -0.236200
      6 C02        -43.9290   -32.5340     2.5970 c          1 S6C       0.698000
      7 C03        -43.9420   -31.7170     1.2930 c3         1 S6C      -0.201400
      8 C04        -45.3560   -31.1310     0.9700 c6         1 S6C      -0.060700
      9 C05        -45.3550   -30.3980    -0.3990 c6         1 S6C      -0.077400
     10 C06        -46.7560   -29.8230    -0.7080 c6         1 S6C      -0.092400
     11 C07        -47.2450   -28.8960     0.4290 c6         1 S6C       0.231800
     12 C09        -48.2240   -29.3960     2.7010 ca         1 S6C       0.439900
     13 N08        -47.2090   -29.6010     1.7400 nh         1 S6C      -0.788300
     14 N11        -46.8360   -28.8230     4.7540 na         1 S6C      -0.280600
     15 N13        -48.5580   -28.5500     6.1820 nd         1 S6C      -0.671700
     16 N15        -50.3070   -29.0250     4.5020 nb         1 S6C      -0.181000
     17 N17        -49.4980   -29.5280     2.2750 nb         1 S6C      -0.302000
     18 O01        -44.2360   -33.7140     2.5400 o          1 S6C      -0.737500
     19 O19        -43.6580   -31.9550     3.6380 o          1 S6C      -0.737500
     20 H181       -45.9860   -30.7820     3.0200 h1         1 S6C       0.055200
     21 H182       -45.1570   -29.3960     2.2820 h1         1 S6C       0.055200
     22 H161       -51.4990   -29.4520     2.8500 h5         1 S6C       0.032100
     23 H121       -46.4950   -28.2910     6.8330 h5         1 S6C       0.062800
     24 H031       -43.6920   -32.3780     0.4530 hc         1 S6C       0.026700
     25 H032       -43.2600   -30.8620     1.3830 hc         1 S6C       0.026700
     26 H041       -46.0390   -31.9900     0.8970 hc         1 S6C       0.075700
     27 H052       -45.0530   -31.0870    -1.1990 hc         1 S6C       0.033700
     28 H051       -44.6160   -29.5840    -0.3880 hc         1 S6C       0.033700
     29 H062       -46.7320   -29.2670    -1.6550 hc         1 S6C       0.041700
     30 H061       -47.4720   -30.6440    -0.8450 hc         1 S6C       0.041700
     31 H072       -46.6040   -28.0020     0.4700 h1         1 S6C       0.049200
     32 H071       -48.2610   -28.5510     0.1890 h1         1 S6C       0.049200
     33 H111       -45.8850   -28.8340     4.4100 hn         1 S6C       0.381000
@<TRIPOS>BOND
     1     1     8 1   
     2     1    13 1   
     3     1    20 1   
     4     1    21 1   
     5     2    16 ar  
     6     2    17 ar  
     7     2    22 1   
     8     3     5 ar  
     9     3    15 1   
    10     3    16 ar  
    11     4    14 1   
    12     4    15 2   
    13     4    23 1   
    14     5    12 ar  
    15     5    14 1   
    16     6     7 1   
    17     6    18 1   
    18     6    19 1   
    19     7     8 1   
    20     7    24 1   
    21     7    25 1   
    22     8     9 1   
    23     8    26 1   
    24     9    10 1   
    25     9    27 1   
    26     9    28 1   
    27    10    11 1   
    28    10    29 1   
    29    10    30 1   
    30    11    13 1   
    31    11    31 1   
    32    11    32 1   
    33    12    13 1   
    34    12    17 ar  
    35    14    33 1   
@<TRIPOS>SUBSTRUCTURE
     1 S6C         1 TEMP              0 ****  ****    0 ROOT
