@<TRIPOS>MOLECULE
S6C
   33    35     1     0     0
SMALL
abcg2


@<TRIPOS>ATOM
      1 C18        -45.7790   -29.9080     2.0000 c6         1 S6C       0.223800
      2 C16        -50.3480   -28.9190     3.0430 ca         1 S6C       0.140900
      3 C14        -49.0350   -29.0930     4.8310 ca         1 S6C       0.242000
      4 C12        -47.3500   -29.1740     6.1380 cc         1 S6C       0.427700
      5 C10        -47.9070   -29.2350     4.0060 ca         1 S6C      -0.236200
      6 C02        -43.8070   -32.1000     2.7760 c          1 S6C       0.698000
      7 C03        -43.9520   -31.5070     1.3610 c3         1 S6C      -0.201400
      8 C04        -45.3720   -31.0370     1.0420 c6         1 S6C      -0.060700
      9 C05        -45.5210   -30.5950    -0.4130 c6         1 S6C      -0.077400
     10 C06        -46.9280   -30.0660    -0.6820 c6         1 S6C      -0.092400
     11 C07        -47.2750   -28.9510     0.2960 c6         1 S6C       0.231800
     12 C09        -48.0840   -29.2300     2.6010 ca         1 S6C       0.439900
     13 N08        -47.1010   -29.3830     1.6840 nh         1 S6C      -0.788300
     14 N11        -46.8390   -29.2750     4.8880 na         1 S6C      -0.280600
     15 N13        -48.6630   -29.0700     6.1560 nd         1 S6C      -0.671700
     16 N15        -50.2910   -28.9480     4.3670 nb         1 S6C      -0.181000
     17 N17        -49.3470   -29.0440     2.1670 nb         1 S6C      -0.302000
     18 O01        -44.5370   -33.0880     3.0540 o          1 S6C      -0.737500
     19 O19        -42.9740   -31.5610     3.5510 o          1 S6C      -0.737500
     20 H181       -45.7850   -30.3170     3.0030 h1         1 S6C       0.055200
     21 H182       -45.0360   -29.1020     1.9540 h1         1 S6C       0.055200
     22 H161       -51.3320   -28.7810     2.6050 h5         1 S6C       0.032100
     23 H121       -46.7110   -29.1790     7.0080 h5         1 S6C       0.062800
     24 H031       -43.6760   -32.2820     0.6400 hc         1 S6C       0.026700
     25 H032       -43.2530   -30.6770     1.2390 hc         1 S6C       0.026700
     26 H041       -46.0570   -31.8720     1.2200 hc         1 S6C       0.075700
     27 H052       -45.2910   -31.4330    -1.0760 hc         1 S6C       0.033700
     28 H051       -44.7890   -29.8070    -0.6280 hc         1 S6C       0.033700
     29 H062       -47.0100   -29.6800    -1.7010 hc         1 S6C       0.041700
     30 H061       -47.6570   -30.8750    -0.5770 hc         1 S6C       0.041700
     31 H072       -46.6020   -28.0990     0.1280 h1         1 S6C       0.049200
     32 H071       -48.2960   -28.6110     0.1680 h1         1 S6C       0.049200
     33 H111       -45.8550   -29.3120     4.6750 hn         1 S6C       0.381000
@<TRIPOS>BOND
     1     1     8 1   
     2     1    13 1   
     3     1    20 1   
     4     1    21 1   
     5     2    16 ar  
     6     2    17 ar  
     7     2    22 1   
     8     3     5 ar  
     9     3    15 1   
    10     3    16 ar  
    11     4    14 1   
    12     4    15 2   
    13     4    23 1   
    14     5    12 ar  
    15     5    14 1   
    16     6     7 1   
    17     6    18 1   
    18     6    19 1   
    19     7     8 1   
    20     7    24 1   
    21     7    25 1   
    22     8     9 1   
    23     8    26 1   
    24     9    10 1   
    25     9    27 1   
    26     9    28 1   
    27    10    11 1   
    28    10    29 1   
    29    10    30 1   
    30    11    13 1   
    31    11    31 1   
    32    11    32 1   
    33    12    13 1   
    34    12    17 ar  
    35    14    33 1   
@<TRIPOS>SUBSTRUCTURE
     1 S6C         1 TEMP              0 ****  ****    0 ROOT
