@<TRIPOS>MOLECULE
S6D
   43    46     1     0     0
SMALL
abcg2


@<TRIPOS>ATOM
      1 N3          -4.2880     0.2270    17.9780 nb         1 S6D      -0.309000
      2 C4          -2.2130    -1.2770    15.3450 cy         1 S6D       0.224800
      3 N2          -3.1000    -1.8540    18.0350 nb         1 S6D      -0.269000
      4 C7          -4.5800    -1.2670    19.8350 ca         1 S6D      -0.304000
      5 C6          -3.7010    -2.1050    19.2010 ca         1 S6D       0.082300
      6 C9          -6.4330     0.6850    20.9350 c5         1 S6D       0.256300
      7 C13         -6.0490     3.2080    21.2730 cx         1 S6D      -0.012700
      8 C8          -4.8590    -0.0440    19.1610 ca         1 S6D       0.431900
      9 C16         -3.3220    -3.4360    19.8160 c3         1 S6D       0.245700
     10 C2          -3.2200     0.6350    15.3030 cy         1 S6D       0.240500
     11 C3          -2.4530    -0.2090    14.2500 cy         1 S6D      -0.124400
     12 N1          -2.8140    -0.3570    16.3180 nn         1 S6D      -0.770300
     13 C5          -3.4250    -0.6700    17.4800 ca         1 S6D       0.421900
     14 N4          -5.6980     0.8670    19.6780 nh         1 S6D      -0.772300
     15 C10         -7.0110     2.0500    21.2240 cx         1 S6D      -0.164700
     16 C11         -6.7970     2.9140    20.0060 cx         1 S6D      -0.164700
     17 C12         -6.0770     2.0920    18.9650 c5         1 S6D       0.256300
     18 C15         -5.6780     5.7360    21.6840 c          1 S6D       0.713000
     19 O1          -5.0480     5.7700    20.5970 o          1 S6D      -0.735500
     20 O2          -5.7980     6.6910    22.4980 o          1 S6D      -0.735500
     21 F1          -3.5530    -4.4650    18.9730 f          1 S6D      -0.113333
     22 F2          -2.0060    -3.4780    20.1260 f          1 S6D      -0.113333
     23 F3          -4.0000    -3.7000    20.9490 f          1 S6D      -0.113333
     24 H1          -2.7900    -2.1950    15.2210 h1         1 S6D       0.056700
     25 H2          -1.1740    -1.5320    15.5560 h1         1 S6D       0.056700
     26 H3          -5.0370    -1.5260    20.7740 ha         1 S6D       0.142000
     27 H4          -7.2270    -0.0600    20.8200 h1         1 S6D       0.051450
     28 H5          -5.7540     0.3420    21.7180 h1         1 S6D       0.051450
     29 H6          -4.9950     2.9460    21.2660 hc         1 S6D       0.083700
     30 H7          -3.2310     2.4900    16.4120 hc         1 S6D       0.050033
     31 H8          -1.6620     2.0710    15.6980 hc         1 S6D       0.050033
     32 H9          -2.9740     2.6710    14.6700 hc         1 S6D       0.050033
     33 H10         -4.3040     0.6200    15.1530 h1         1 S6D       0.057700
     34 H11         -1.5410     0.2740    13.9010 hc         1 S6D       0.055700
     35 H12         -3.0420    -0.5390    13.3990 hc         1 S6D       0.055700
     36 H13         -7.9270     2.1000    21.7970 hc         1 S6D       0.096200
     37 H14         -7.5530     3.6110    19.6690 hc         1 S6D       0.096200
     38 H15         -5.1850     2.5810    18.5720 h1         1 S6D       0.051450
     39 H16         -6.7310     1.8600    18.1180 h1         1 S6D       0.051450
     40 H17         -7.4710     4.6200    22.0180 hc         1 S6D       0.028200
     41 H18         -6.1900     4.2490    23.1440 hc         1 S6D       0.028200
     42 C1          -2.7420     2.0530    15.5400 c3         1 S6D      -0.092100
     43 C14         -6.3950     4.4270    22.0840 c3         1 S6D      -0.191400
@<TRIPOS>BOND
     1     1     8 ar  
     2     1    13 ar  
     3     2    11 1   
     4     2    12 1   
     5     2    24 1   
     6     2    25 1   
     7     3     5 ar  
     8     3    13 ar  
     9     4     5 ar  
    10     4     8 ar  
    11     4    26 1   
    12     5     9 1   
    13     6    14 1   
    14     6    15 1   
    15     6    27 1   
    16     6    28 1   
    17     7    15 1   
    18     7    16 1   
    19     7    29 1   
    20     7    43 1   
    21     8    14 1   
    22     9    21 1   
    23     9    22 1   
    24     9    23 1   
    25    10    11 1   
    26    10    12 1   
    27    10    33 1   
    28    10    42 1   
    29    11    34 1   
    30    11    35 1   
    31    12    13 1   
    32    14    17 1   
    33    15    16 1   
    34    15    36 1   
    35    16    17 1   
    36    16    37 1   
    37    17    38 1   
    38    17    39 1   
    39    18    19 1   
    40    18    20 1   
    41    18    43 1   
    42    30    42 1   
    43    31    42 1   
    44    32    42 1   
    45    40    43 1   
    46    41    43 1   
@<TRIPOS>SUBSTRUCTURE
     1 S6D         1 TEMP              0 ****  ****    0 ROOT
