@<TRIPOS>MOLECULE
S6D
   43    46     1     0     0
SMALL
No Charge or Current Charge


@<TRIPOS>ATOM
      1 N3          -4.2580     0.1760    17.9650 nb         1 S6D      -0.309000
      2 C4          -2.3330    -1.4200    15.1760 cy         1 S6D       0.224800
      3 N2          -3.1540    -1.9500    17.9840 nb         1 S6D      -0.269000
      4 C7          -4.5130    -1.2890    19.8360 ca         1 S6D      -0.304000
      5 C6          -3.6780    -2.2230    19.1980 ca         1 S6D       0.082300
      6 C9          -6.2680     0.7710    21.0690 c5         1 S6D       0.256300
      7 C13         -6.1110     3.3160    21.3350 cx         1 S6D      -0.012700
      8 C8          -4.7840    -0.0810    19.1740 ca         1 S6D       0.431900
      9 C16         -3.3310    -3.5660    19.8580 c3         1 S6D       0.245700
     10 C2          -3.2360     0.5410    15.1670 cy         1 S6D       0.240500
     11 C3          -2.1200    -0.1410    14.3070 cy         1 S6D      -0.124400
     12 N1          -2.9280    -0.5020    16.1840 nn         1 S6D      -0.770300
     13 C5          -3.4680    -0.7660    17.4230 ca         1 S6D       0.421900
     14 N4          -5.6110     0.9170    19.7370 nh         1 S6D      -0.772300
     15 C10         -7.0110     2.0990    21.2470 cx         1 S6D      -0.164700
     16 C11         -6.7980     2.9540    20.0330 cx         1 S6D      -0.164700
     17 C12         -5.9090     2.2040    19.0350 c5         1 S6D       0.256300
     18 C15         -5.8280     5.7940    21.5940 c          1 S6D       0.713000
     19 O1          -6.3520     6.4110    20.6790 o          1 S6D      -0.735500
     20 O2          -4.7140     6.0480    22.0270 o          1 S6D      -0.735500
     21 F1          -2.6120    -4.3870    19.0550 f          1 S6D      -0.113333
     22 F2          -2.6040    -3.3890    20.9850 f          1 S6D      -0.113333
     23 F3          -4.4440    -4.2480    20.2130 f          1 S6D      -0.113333
     24 H1          -3.0370    -2.1410    14.7410 h1         1 S6D       0.056700
     25 H2          -1.4010    -1.9190    15.4670 h1         1 S6D       0.056700
     26 H3          -4.9310    -1.5080    20.8130 ha         1 S6D       0.142000
     27 H4          -6.9630    -0.0810    21.0690 h1         1 S6D       0.051450
     28 H5          -5.5310     0.6040    21.8680 h1         1 S6D       0.051450
     29 H6          -5.0380     3.1410    21.4000 hc         1 S6D       0.083700
     30 H7          -3.8130     2.3540    16.2390 hc         1 S6D       0.050033
     31 H8          -2.0610     2.1620    16.0420 hc         1 S6D       0.050033
     32 H9          -3.0630     2.6530    14.6640 hc         1 S6D       0.050033
     33 H10         -4.2310     0.4210    14.7190 h1         1 S6D       0.057700
     34 H11         -1.1270     0.3090    14.4170 hc         1 S6D       0.055700
     35 H12         -2.3420    -0.2480    13.2410 hc         1 S6D       0.055700
     36 H13         -7.9700     2.1270    21.7580 hc         1 S6D       0.096200
     37 H14         -7.6040     3.5910    19.6790 hc         1 S6D       0.096200
     38 H15         -4.9910     2.7630    18.8040 h1         1 S6D       0.051450
     39 H16         -6.4360     2.0200    18.0880 h1         1 S6D       0.051450
     40 H17         -7.6290     4.6490    22.0130 hc         1 S6D       0.028200
     41 H18         -6.2400     4.3520    23.1700 hc         1 S6D       0.028200
     42 C1          -3.0300     2.0120    15.5530 c3         1 S6D      -0.092100
     43 C14         -6.5440     4.5440    22.1340 c3         1 S6D      -0.191400
@<TRIPOS>BOND
     1     1     8 ar  
     2     1    13 ar  
     3     2    11 1   
     4     2    12 1   
     5     2    24 1   
     6     2    25 1   
     7     3     5 ar  
     8     3    13 ar  
     9     4     5 ar  
    10     4     8 ar  
    11     4    26 1   
    12     5     9 1   
    13     6    14 1   
    14     6    15 1   
    15     6    27 1   
    16     6    28 1   
    17     7    15 1   
    18     7    16 1   
    19     7    29 1   
    20     7    43 1   
    21     8    14 1   
    22     9    21 1   
    23     9    22 1   
    24     9    23 1   
    25    10    11 1   
    26    10    12 1   
    27    10    33 1   
    28    10    42 1   
    29    11    34 1   
    30    11    35 1   
    31    12    13 1   
    32    14    17 1   
    33    15    16 1   
    34    15    36 1   
    35    16    17 1   
    36    16    37 1   
    37    17    38 1   
    38    17    39 1   
    39    18    19 1   
    40    18    20 1   
    41    18    43 1   
    42    30    42 1   
    43    31    42 1   
    44    32    42 1   
    45    40    43 1   
    46    41    43 1   
@<TRIPOS>SUBSTRUCTURE
     1 S6D         1 TEMP              0 ****  ****    0 ROOT
