@<TRIPOS>MOLECULE
S6E
   24    26     1     0     0
SMALL
No Charge or Current Charge


@<TRIPOS>ATOM
      1 C01          9.9370    74.6630    -4.1450 c5         1 S6E      -0.068700
      2 C02          9.4200    73.4820    -5.0440 c5         1 S6E      -0.078400
      3 C03         10.5810    72.4540    -4.8910 c5         1 S6E       0.128300
      4 Cl1         12.0870    72.9240    -5.8100 cl         1 S6E      -0.257000
      5 C05         10.7300    72.4460    -3.3390 c5         1 S6E       0.124300
      6 Cl2         12.1310    71.4800    -2.7020 cl         1 S6E      -0.221000
      7 C07         10.8160    73.9830    -3.0400 c5         1 S6E      -0.073700
      8 C08         10.0810    74.3940    -1.7000 c5         1 S6E       0.163200
      9 Cl3         11.0890    74.2230    -0.1960 cl         1 S6E      -0.151000
     10 C10          8.7030    73.7410    -1.6590 c2         1 S6E       0.045800
     11 Cl4          8.1960    72.4830    -0.5580 cl         1 S6E      -0.090000
     12 C12          7.9500    74.3100    -2.6000 c2         1 S6E       0.048800
     13 Cl5          6.2800    73.9310    -2.9450 cl         1 S6E      -0.092000
     14 C14          8.7940    75.3670    -3.3050 c5         1 S6E       0.161200
     15 Cl6          7.8740    76.6500    -4.2080 cl         1 S6E      -0.160000
     16 C16          9.6520    75.8600    -2.0810 c5         1 S6E       0.294000
     17 Cl7         11.0130    77.0240    -2.4620 cl         1 S6E      -0.165500
     18 Cl8          8.6630    76.6890    -0.7860 cl         1 S6E      -0.165500
     19 H1          10.5200    75.3830    -4.7350 hc         1 S6E       0.103700
     20 H2           9.2760    73.7890    -6.0860 hc         1 S6E       0.075200
     21 H3           8.4720    73.0380    -4.7210 hc         1 S6E       0.075200
     22 H4          10.3050    71.4650    -5.2800 h1         1 S6E       0.099700
     23 H5           9.8550    71.9560    -2.8970 h1         1 S6E       0.089700
     24 H6          11.8540    74.3410    -3.0770 hc         1 S6E       0.115700
@<TRIPOS>BOND
     1     1     2 1   
     2     1     7 1   
     3     1    14 1   
     4     1    19 1   
     5     2     3 1   
     6     2    20 1   
     7     2    21 1   
     8     3     4 1   
     9     3     5 1   
    10     3    22 1   
    11     5     6 1   
    12     5     7 1   
    13     5    23 1   
    14     7     8 1   
    15     7    24 1   
    16     8     9 1   
    17     8    10 1   
    18     8    16 1   
    19    10    11 1   
    20    10    12 2   
    21    12    13 1   
    22    12    14 1   
    23    14    15 1   
    24    14    16 1   
    25    16    17 1   
    26    16    18 1   
@<TRIPOS>SUBSTRUCTURE
     1 S6E         1 TEMP              0 ****  ****    0 ROOT
