@<TRIPOS>MOLECULE
S6E
   24    26     1     0     0
SMALL
abcg2


@<TRIPOS>ATOM
      1 C01          9.8910    74.6290    -4.1160 c5         1 S6E      -0.068700
      2 C02          9.4400    73.4960    -5.0430 c5         1 S6E      -0.078400
      3 C03         10.5130    72.4340    -4.8540 c5         1 S6E       0.128300
      4 CL1         12.0070    72.9150    -5.7320 cl         1 S6E      -0.257000
      5 C05         10.7450    72.4720    -3.3490 c5         1 S6E       0.124300
      6 CL2         12.2000    71.6120    -2.7990 cl         1 S6E      -0.221000
      7 C07         10.7630    73.9600    -3.0120 c5         1 S6E      -0.073700
      8 C08         10.0700    74.4080    -1.7050 c5         1 S6E       0.163200
      9 CL3         11.0290    74.2450    -0.2560 cl         1 S6E      -0.151000
     10 C10          8.7000    73.7660    -1.6530 c2         1 S6E       0.045800
     11 CL4          8.2890    72.4930    -0.6230 cl         1 S6E      -0.090000
     12 C12          7.9550    74.3360    -2.5950 c2         1 S6E       0.048800
     13 CL5          6.3720    73.9610    -3.0420 cl         1 S6E      -0.092000
     14 C14          8.8160    75.3700    -3.2910 c5         1 S6E       0.161200
     15 CL6          7.9420    76.6100    -4.1540 cl         1 S6E      -0.160000
     16 C16          9.6460    75.8500    -2.0750 c5         1 S6E       0.294000
     17 CL7         10.9910    76.9040    -2.4960 cl         1 S6E      -0.165500
     18 CL8          8.6930    76.6520    -0.8310 cl         1 S6E      -0.165500
     19 H1          10.4760    75.3590    -4.6750 hc         1 S6E       0.103700
     20 H2           9.3370    73.8090    -6.0800 hc         1 S6E       0.075200
     21 H3           8.4840    73.0620    -4.7430 hc         1 S6E       0.075200
     22 H4          10.2320    71.4480    -5.2170 h1         1 S6E       0.099700
     23 H5           9.9020    71.9500    -2.8930 h1         1 S6E       0.089700
     24 H6          11.7850    74.3350    -3.0340 hc         1 S6E       0.115700
@<TRIPOS>BOND
     1     1     2 1   
     2     1     7 1   
     3     1    14 1   
     4     1    19 1   
     5     2     3 1   
     6     2    20 1   
     7     2    21 1   
     8     3     4 1   
     9     3     5 1   
    10     3    22 1   
    11     5     6 1   
    12     5     7 1   
    13     5    23 1   
    14     7     8 1   
    15     7    24 1   
    16     8     9 1   
    17     8    10 1   
    18     8    16 1   
    19    10    11 1   
    20    10    12 2   
    21    12    13 1   
    22    12    14 1   
    23    14    15 1   
    24    14    16 1   
    25    16    17 1   
    26    16    18 1   
@<TRIPOS>SUBSTRUCTURE
     1 S6E         1 TEMP              0 ****  ****    0 ROOT
