@<TRIPOS>MOLECULE
S6F
   27    27     1     0     0
SMALL
abcg2


@<TRIPOS>ATOM
      1 O4         -25.3460    -6.0260     3.0670 o          1 S6F      -0.507100
      2 N4         -23.8940    -7.4070     1.1650 ns         1 S6F      -0.496900
      3 C          -23.9290    -8.5360     0.4210 c          1 S6F       0.600100
      4 O          -23.6410    -9.6420     0.8780 o          1 S6F      -0.603100
      5 CH3        -24.3300    -8.3540    -1.0220 c3         1 S6F      -0.174100
      6 C15        -20.4410    -8.8100     2.4020 ca         1 S6F       0.142000
      7 C19        -19.5740    -9.6120     1.6720 ca         1 S6F      -0.094000
      8 C18        -19.2430    -9.2500     0.3720 ca         1 S6F      -0.096000
      9 C17        -19.7760    -8.0910    -0.1800 ca         1 S6F      -0.108000
     10 C16        -20.6370    -7.3010     0.5710 ca         1 S6F      -0.100000
     11 C14        -20.9950    -7.6410     1.8770 ca         1 S6F      -0.071300
     12 C13        -21.9810    -6.7980     2.6320 c3         1 S6F      -0.038100
     13 C12        -23.4190    -7.3710     2.5230 c3         1 S6F      -0.014300
     14 C11        -24.3380    -6.5860     3.4260 c          1 S6F       0.562900
     15 H8         -24.1280    -6.5310     0.7240 hn         1 S6F       0.319500
     16 H1         -25.0740    -9.1070    -1.2830 hc         1 S6F       0.061700
     17 H2         -24.7250    -7.3610    -1.2310 hc         1 S6F       0.061700
     18 H3         -23.4500    -8.5220    -1.6450 hc         1 S6F       0.061700
     19 H21        -18.5710    -9.8740    -0.2020 ha         1 S6F       0.120000
     20 H31        -19.5220    -7.8010    -1.1910 ha         1 S6F       0.117000
     21 H4         -21.0540    -6.3980     0.1410 ha         1 S6F       0.111000
     22 H6         -21.7110    -6.7310     3.6860 hc         1 S6F       0.059700
     23 H5         -21.9820    -5.7860     2.2230 hc         1 S6F       0.059700
     24 H7         -23.4110    -8.3970     2.9010 h1         1 S6F       0.115700
     25 H9         -24.0060    -6.5460     4.4800 h4         1 S6F      -0.002800
     26 H11        -19.1670   -10.5090     2.1170 ha         1 S6F       0.132000
     27 CL         -20.8520    -9.3190     4.0320 cl         1 S6F      -0.219000
@<TRIPOS>BOND
     1     1    14 2   
     2     2     3 1   
     3     2    13 1   
     4     2    15 1   
     5     3     4 2   
     6     3     5 1   
     7     5    16 1   
     8     5    17 1   
     9     5    18 1   
    10     6     7 ar  
    11     6    11 ar  
    12     6    27 1   
    13     7     8 ar  
    14     7    26 1   
    15     8     9 ar  
    16     8    19 1   
    17     9    10 ar  
    18     9    20 1   
    19    10    11 ar  
    20    10    21 1   
    21    11    12 1   
    22    12    13 1   
    23    12    22 1   
    24    12    23 1   
    25    13    14 1   
    26    13    24 1   
    27    14    25 1   
@<TRIPOS>SUBSTRUCTURE
     1 S6F         1 TEMP              0 ****  ****    0 ROOT
