@<TRIPOS>MOLECULE
S6F
   27    27     1     0     0
SMALL
No Charge or Current Charge


@<TRIPOS>ATOM
      1 O4         -25.2410    -5.6800     2.9310 o          1 S6F      -0.507100
      2 N4         -23.9050    -7.4230     1.1800 ns         1 S6F      -0.496900
      3 C          -23.8750    -8.5800     0.4330 c          1 S6F       0.600100
      4 O          -23.4970    -9.6500     0.8850 o          1 S6F      -0.603100
      5 CH3        -24.3630    -8.4240    -1.0010 c3         1 S6F      -0.174100
      6 C15        -20.5020    -8.9250     2.3790 ca         1 S6F       0.142000
      7 C19        -19.6250    -9.7230     1.6230 ca         1 S6F      -0.094000
      8 C18        -19.2210    -9.3150     0.3410 ca         1 S6F      -0.096000
      9 C17        -19.6960    -8.1040    -0.1880 ca         1 S6F      -0.108000
     10 C16        -20.5720    -7.3020     0.5640 ca         1 S6F      -0.100000
     11 C14        -20.9840    -7.7030     1.8520 ca         1 S6F      -0.071300
     12 C13        -21.9480    -6.8130     2.6390 c3         1 S6F      -0.038100
     13 C12        -23.4210    -7.2950     2.5790 c3         1 S6F      -0.014300
     14 C11        -24.3440    -6.3690     3.4110 c          1 S6F       0.562900
     15 H8         -24.2700    -6.5960     0.7190 hn         1 S6F       0.319500
     16 H1         -24.3380    -9.3660    -1.5600 hc         1 S6F       0.061700
     17 H2         -25.3670    -7.9840    -0.9910 hc         1 S6F       0.061700
     18 H3         -23.7720    -7.6440    -1.4940 hc         1 S6F       0.061700
     19 H21        -18.5430    -9.9360    -0.2410 ha         1 S6F       0.120000
     20 H31        -19.3870    -7.7870    -1.1810 ha         1 S6F       0.117000
     21 H4         -20.9360    -6.3690     0.1400 ha         1 S6F       0.111000
     22 H6         -21.6300    -6.7460     3.6870 hc         1 S6F       0.059700
     23 H5         -21.9000    -5.7860     2.2570 hc         1 S6F       0.059700
     24 H7         -23.4810    -8.2780     3.0650 h1         1 S6F       0.115700
     25 H9         -24.1460    -6.3640     4.5050 h4         1 S6F      -0.002800
     26 H11        -19.2580   -10.6600     2.0340 ha         1 S6F       0.132000
     27 Cl         -20.9740    -9.4860     3.9840 cl         1 S6F      -0.219000
@<TRIPOS>BOND
     1     1    14 2   
     2     2     3 1   
     3     2    13 1   
     4     2    15 1   
     5     3     4 2   
     6     3     5 1   
     7     5    16 1   
     8     5    17 1   
     9     5    18 1   
    10     6     7 ar  
    11     6    11 ar  
    12     6    27 1   
    13     7     8 ar  
    14     7    26 1   
    15     8     9 ar  
    16     8    19 1   
    17     9    10 ar  
    18     9    20 1   
    19    10    11 ar  
    20    10    21 1   
    21    11    12 1   
    22    12    13 1   
    23    12    22 1   
    24    12    23 1   
    25    13    14 1   
    26    13    24 1   
    27    14    25 1   
@<TRIPOS>SUBSTRUCTURE
     1 S6F         1 TEMP              0 ****  ****    0 ROOT
