@<TRIPOS>MOLECULE
S6H
   24    26     1     0     0
SMALL
bcc


@<TRIPOS>ATOM
      1 C01         10.9840    72.4190    -3.1760 c5         1 S6H      -0.078400
      2 C02         10.8580    73.9250    -2.9230 c5         1 S6H      -0.068700
      3 C03          9.9360    74.4740    -4.0520 c5         1 S6H      -0.074700
      4 C04          9.5500    73.2460    -4.8700 c5         1 S6H       0.047700
      5 C05         10.7120    72.2830    -4.6670 c5         1 S6H       0.051700
      6 CL1         12.1480    72.8260    -5.6030 cl         1 S6H      -0.180400
      7 CL2          9.1790    73.6200    -6.5670 cl         1 S6H      -0.144400
      8 C08          8.8150    75.1920    -3.2670 c5         1 S6H       0.086600
      9 C09          8.0250    74.1430    -2.5130 c2         1 S6H      -0.028800
     10 C10          8.8080    73.6670    -1.5500 c2         1 S6H      -0.026800
     11 C11         10.1330    74.3940    -1.6410 c5         1 S6H       0.084600
     12 C12          9.6170    75.7850    -2.0830 c5         1 S6H       0.140800
     13 CL3          8.6150    76.5900    -0.8790 cl         1 S6H      -0.089400
     14 CL4         10.8850    76.9030    -2.5710 cl         1 S6H      -0.089400
     15 CL5         11.1030    74.3660    -0.1900 cl         1 S6H      -0.083400
     16 CL6          8.4790    72.4260    -0.4550 cl         1 S6H      -0.017400
     17 CL7          6.4670    73.6460    -2.9360 cl         1 S6H      -0.014400
     18 CL8          7.8640    76.3290    -4.1880 cl         1 S6H      -0.074400
     19 H1          10.2260    71.8380    -2.6450 hc         1 S6H       0.075200
     20 H2          11.9540    72.0190    -2.8890 hc         1 S6H       0.075200
     21 H3          11.8390    74.3950    -2.9660 hc         1 S6H       0.103700
     22 H4          10.4650    75.1910    -4.6800 hc         1 S6H       0.115700
     23 H5           8.6650    72.7440    -4.4740 h1         1 S6H       0.089700
     24 H6          10.4850    71.2690    -4.9880 h1         1 S6H       0.099700
@<TRIPOS>BOND
     1     1     2 1   
     2     1     5 1   
     3     1    19 1   
     4     1    20 1   
     5     2     3 1   
     6     2    11 1   
     7     2    21 1   
     8     3     4 1   
     9     3     8 1   
    10     3    22 1   
    11     4     5 1   
    12     4     7 1   
    13     4    23 1   
    14     5     6 1   
    15     5    24 1   
    16     8     9 1   
    17     8    12 1   
    18     8    18 1   
    19     9    10 2   
    20     9    17 1   
    21    10    11 1   
    22    10    16 1   
    23    11    12 1   
    24    11    15 1   
    25    12    13 1   
    26    12    14 1   
@<TRIPOS>SUBSTRUCTURE
     1 S6H         1 TEMP              0 ****  ****    0 ROOT
