@<TRIPOS>MOLECULE
S6H
   24    26     1     0     0
SMALL
No Charge or Current Charge


@<TRIPOS>ATOM
      1 C01         10.9640    72.3970    -3.1660 c5         1 S6H      -0.078400
      2 C02         10.9110    73.9520    -2.9410 c5         1 S6H      -0.068700
      3 C03          9.9860    74.5010    -4.0820 c5         1 S6H      -0.074700
      4 C04          9.5270    73.2300    -4.8800 c5         1 S6H       0.124300
      5 C05         10.7730    72.3070    -4.7090 c5         1 S6H       0.128300
      6 Cl1         12.2490    72.8210    -5.6520 cl         1 S6H      -0.257000
      7 Cl2          9.0410    73.5620    -6.5980 cl         1 S6H      -0.221000
      8 C08          8.8060    75.1870    -3.2820 c5         1 S6H       0.163200
      9 C09          8.0220    74.1200    -2.5250 c2         1 S6H       0.046800
     10 C10          8.8040    73.6440    -1.5550 c2         1 S6H       0.048800
     11 C11         10.1400    74.3760    -1.6250 c5         1 S6H       0.161200
     12 C12          9.6260    75.7920    -2.0820 c5         1 S6H       0.294000
     13 Cl3          8.5830    76.6260    -0.8340 cl         1 S6H      -0.166000
     14 Cl4         10.9140    77.0170    -2.5250 cl         1 S6H      -0.166000
     15 Cl5         11.1500    74.3400    -0.1130 cl         1 S6H      -0.160000
     16 Cl6          8.3630    72.4190    -0.3910 cl         1 S6H      -0.093000
     17 Cl7          6.3800    73.6240    -2.8570 cl         1 S6H      -0.090000
     18 Cl8          7.8170    76.3670    -4.2490 cl         1 S6H      -0.151000
     19 H1          10.1820    71.8310    -2.6500 hc         1 S6H       0.075200
     20 H2          11.9190    71.9670    -2.8440 hc         1 S6H       0.075200
     21 H3          11.9160    74.3940    -2.9940 hc         1 S6H       0.103700
     22 H4          10.5230    75.2070    -4.7280 hc         1 S6H       0.115700
     23 H5           8.6490    72.7300    -4.4540 h1         1 S6H       0.089700
     24 H6          10.5670    71.2790    -5.0370 h1         1 S6H       0.099700
@<TRIPOS>BOND
     1     1     2 1   
     2     1     5 1   
     3     1    19 1   
     4     1    20 1   
     5     2     3 1   
     6     2    11 1   
     7     2    21 1   
     8     3     4 1   
     9     3     8 1   
    10     3    22 1   
    11     4     5 1   
    12     4     7 1   
    13     4    23 1   
    14     5     6 1   
    15     5    24 1   
    16     8     9 1   
    17     8    12 1   
    18     8    18 1   
    19     9    10 2   
    20     9    17 1   
    21    10    11 1   
    22    10    16 1   
    23    11    12 1   
    24    11    15 1   
    25    12    13 1   
    26    12    14 1   
@<TRIPOS>SUBSTRUCTURE
     1 S6H         1 TEMP              0 ****  ****    0 ROOT
