@<TRIPOS>MOLECULE
S6I
   36    37     1     0     0
SMALL
No Charge or Current Charge


@<TRIPOS>ATOM
      1 C1          -3.1620     0.2760     0.0240 ca         1 S6I      -0.320500
      2 N1          -5.2280    -0.3370     1.5680 n8         1 S6I      -1.000100
      3 O1          -5.5790     1.4270    -0.1140 o          1 S6I      -0.548000
      4 S1          -4.9440     0.1160     0.0240 sy         1 S6I       1.131600
      5 C2          -2.3500    -0.8060    -0.3710 ca         1 S6I       0.026500
      6 O2          -5.3440    -1.0490    -0.7610 o          1 S6I      -0.548000
      7 C3          -0.9510    -0.6730    -0.3680 ca         1 S6I      -0.187500
      8 C4          -0.3440     0.5390     0.0260 ca         1 S6I       0.062000
      9 C5          -1.1660     1.6120     0.4180 ca         1 S6I      -0.187500
     10 C6          -2.5650     1.4880     0.4180 ca         1 S6I       0.026500
     11 N7           1.0610     0.7470     0.0540 ns         1 S6I      -0.164000
     12 C8           2.1300    -0.0710    -0.2710 c          1 S6I       0.665100
     13 O8           2.0390    -1.2200    -0.6820 o          1 S6I      -0.612100
     14 N9           3.3400     0.5670    -0.0820 ns         1 S6I      -0.510900
     15 C10          4.5720    -0.1780    -0.3610 c5         1 S6I       0.111700
     16 C11          5.6920     0.8840    -0.4160 c5         1 S6I      -0.096400
     17 C12          6.9450    -0.0170    -0.2270 c5         1 S6I      -0.078900
     18 C13          6.4710    -1.1580     0.7380 c5         1 S6I      -0.078900
     19 C14          4.9500    -0.8990     0.9540 c5         1 S6I      -0.096400
     20 H10          4.5430    -0.8340    -1.2450 h1         1 S6I       0.087700
     21 H11          5.7090     1.4330    -1.3650 hc         1 S6I       0.048700
     22 H11A         5.6140     1.6230     0.3920 hc         1 S6I       0.048700
     23 HN1         -5.7760    -1.1820     1.4210 hn         1 S6I       0.469500
     24 H2          -2.7940    -1.7510    -0.6820 ha         1 S6I       0.136500
     25 H12          7.2750    -0.4340    -1.1860 hc         1 S6I       0.047200
     26 H12A         7.7930     0.5460     0.1820 hc         1 S6I       0.047200
     27 H3          -0.3580    -1.5270    -0.6780 ha         1 S6I       0.134500
     28 H13          6.6440    -2.1410     0.2850 hc         1 S6I       0.047200
     29 H13A         7.0180    -1.1470     1.6880 hc         1 S6I       0.047200
     30 H14          4.7850    -0.2670     1.8360 hc         1 S6I       0.048700
     31 H14A         4.3850    -1.8250     1.1060 hc         1 S6I       0.048700
     32 H5          -0.7180     2.5540     0.7260 ha         1 S6I       0.134500
     33 H6          -3.1780     2.3340     0.7270 ha         1 S6I       0.136500
     34 HN7          1.3260     1.6680     0.3740 hn         1 S6I       0.147000
     35 HN9          3.3230     1.5200     0.2560 hn         1 S6I       0.305500
     36 HN1A        -4.3180    -0.6830     1.8590 hn         1 S6I       0.469500
@<TRIPOS>BOND
     1     1     4 1   
     2     1     5 ar  
     3     1    10 ar  
     4     2     4 1   
     5     2    23 1   
     6     2    36 1   
     7     3     4 2   
     8     4     6 2   
     9     5     7 ar  
    10     5    24 1   
    11     7     8 ar  
    12     7    27 1   
    13     8     9 ar  
    14     8    11 1   
    15     9    10 ar  
    16     9    32 1   
    17    10    33 1   
    18    11    12 1   
    19    11    34 1   
    20    12    13 2   
    21    12    14 1   
    22    14    15 1   
    23    14    35 1   
    24    15    16 1   
    25    15    19 1   
    26    15    20 1   
    27    16    17 1   
    28    16    21 1   
    29    16    22 1   
    30    17    18 1   
    31    17    25 1   
    32    17    26 1   
    33    18    19 1   
    34    18    28 1   
    35    18    29 1   
    36    19    30 1   
    37    19    31 1   
@<TRIPOS>SUBSTRUCTURE
     1 S6I         1 TEMP              0 ****  ****    0 ROOT
