@<TRIPOS>MOLECULE
S6I
   36    37     1     0     0
SMALL
abcg2


@<TRIPOS>ATOM
      1 C1          -3.1010     0.1760     0.0130 ca         1 S6I      -0.320500
      2 N1          -5.2860    -0.1320     1.4730 n8         1 S6I      -1.000100
      3 O1          -5.4180     1.2980    -0.5480 o          1 S6I      -0.548000
      4 S1          -4.8490     0.0290    -0.1150 sy         1 S6I       1.131600
      5 C2          -2.2760    -0.8460    -0.4280 ca         1 S6I       0.026500
      6 O2          -5.1420    -1.1610    -0.9050 o          1 S6I      -0.548000
      7 C3          -0.8980    -0.7180    -0.3610 ca         1 S6I      -0.187500
      8 C4          -0.3290     0.4530     0.1510 ca         1 S6I       0.062000
      9 C5          -1.1810     1.4760     0.5970 ca         1 S6I      -0.187500
     10 C6          -2.5490     1.3450     0.5290 ca         1 S6I       0.026500
     11 N7           1.0270     0.6910     0.2620 ns         1 S6I      -0.164000
     12 C8           2.0820    -0.0950    -0.1630 c          1 S6I       0.665100
     13 O8           1.9310    -1.1810    -0.7020 o          1 S6I      -0.612100
     14 N9           3.2860     0.4730     0.0640 ns         1 S6I      -0.510900
     15 C10          4.5400    -0.1920    -0.1980 c5         1 S6I       0.111700
     16 C11          5.6260     0.7810    -0.6890 c5         1 S6I      -0.096400
     17 C12          6.9650     0.1970    -0.1930 c5         1 S6I      -0.078900
     18 C13          6.6070    -1.1030     0.5480 c5         1 S6I      -0.078900
     19 C14          5.1730    -0.8810     1.0120 c5         1 S6I      -0.096400
     20 H10          4.3610    -0.9440    -0.9680 h1         1 S6I       0.087700
     21 H11          5.5910     0.8970    -1.7720 hc         1 S6I       0.048700
     22 H11A         5.4570     1.7740    -0.2640 hc         1 S6I       0.048700
     23 HN1         -6.2800     0.0380     1.5980 hn         1 S6I       0.469500
     24 H2          -2.6930    -1.7580    -0.8320 ha         1 S6I       0.136500
     25 H12          7.6660     0.0210    -1.0090 hc         1 S6I       0.047200
     26 H12A         7.4500     0.8950     0.4900 hc         1 S6I       0.047200
     27 H3          -0.2830    -1.5290    -0.7110 ha         1 S6I       0.134500
     28 H13          6.6440    -1.9530    -0.1390 hc         1 S6I       0.047200
     29 H13A         7.2940    -1.3230     1.3660 hc         1 S6I       0.047200
     30 H14          5.1490    -0.2060     1.8740 hc         1 S6I       0.048700
     31 H14A         4.6520    -1.7990     1.2910 hc         1 S6I       0.048700
     32 H5          -0.7590     2.3890     0.9980 ha         1 S6I       0.134500
     33 H6          -3.1760     2.1550     0.8780 ha         1 S6I       0.136500
     34 HN7          1.2630     1.5810     0.6730 hn         1 S6I       0.147000
     35 HN9          3.3350     1.3290     0.5950 hn         1 S6I       0.305500
     36 HN1A        -5.0400    -1.0410     1.8520 hn         1 S6I       0.469500
@<TRIPOS>BOND
     1     1     4 1   
     2     1     5 ar  
     3     1    10 ar  
     4     2     4 1   
     5     2    23 1   
     6     2    36 1   
     7     3     4 2   
     8     4     6 2   
     9     5     7 ar  
    10     5    24 1   
    11     7     8 ar  
    12     7    27 1   
    13     8     9 ar  
    14     8    11 1   
    15     9    10 ar  
    16     9    32 1   
    17    10    33 1   
    18    11    12 1   
    19    11    34 1   
    20    12    13 2   
    21    12    14 1   
    22    14    15 1   
    23    14    35 1   
    24    15    16 1   
    25    15    19 1   
    26    15    20 1   
    27    16    17 1   
    28    16    21 1   
    29    16    22 1   
    30    17    18 1   
    31    17    25 1   
    32    17    26 1   
    33    18    19 1   
    34    18    28 1   
    35    18    29 1   
    36    19    30 1   
    37    19    31 1   
@<TRIPOS>SUBSTRUCTURE
     1 S6I         1 TEMP              0 ****  ****    0 ROOT
