@<TRIPOS>MOLECULE
S6J
   45    48     1     0     0
SMALL
No Charge or Current Charge


@<TRIPOS>ATOM
      1 C4          -2.8720    -0.8940    14.6590 cy         1 S6J       0.130300
      2 C6          -3.3920    -2.1210    15.4820 cy         1 S6J       0.217800
      3 C9          -3.4640    -2.6000    18.7210 ca         1 S6J      -0.182000
      4 C20         -6.2060     1.6420    19.1300 c5         1 S6J       0.253300
      5 C21         -6.4340     3.0860    21.2380 cx         1 S6J      -0.098700
      6 C8          -3.7910    -1.4560    17.9590 ca         1 S6J       0.718900
      7 C18         -7.1020     2.5400    19.9900 cx         1 S6J      -0.135700
      8 C16         -7.3450     1.8750    21.3140 cx         1 S6J      -0.135700
      9 C1          -2.6230     1.2250    16.2470 c3         1 S6J      -0.088100
     10 C2          -3.4370    -0.0070    15.8290 cy         1 S6J       0.189500
     11 N7          -3.3230    -1.2280    16.6820 nn         1 S6J      -0.769300
     12 C10         -4.0130    -2.7430    20.0210 ca         1 S6J      -0.040300
     13 C11         -4.8550    -1.7020    20.4600 ca         1 S6J      -0.254000
     14 C12         -5.1080    -0.6010    19.6290 ca         1 S6J       0.696900
     15 N13         -4.5890    -0.4830    18.4080 nb         1 S6J      -0.834000
     16 N14         -5.9310     0.4700    20.0180 nh         1 S6J      -0.785300
     17 C15         -6.6160     0.5260    21.3430 c5         1 S6J       0.253300
     18 O24         -6.1850     5.4980    21.1810 oh         1 S6J      -0.655000
     19 C25         -3.7140    -3.9580    20.9300 c3         1 S6J       0.353300
     20 F26         -4.0830    -5.1230    20.3510 f          1 S6J      -0.106667
     21 F27         -4.3630    -3.9010    22.1160 f          1 S6J      -0.106667
     22 F28         -2.3970    -4.0560    21.2210 f          1 S6J      -0.106667
     23 C29         -2.5590    -3.5800    18.1920 cg         1 S6J       0.343000
     24 N30         -1.8260    -4.3880    17.7760 n1         1 S6J      -0.466000
     25 O31         -3.4370    -0.6960    13.3580 oh         1 S6J      -0.640000
     26 H1          -1.7770    -0.8700    14.6000 h1         1 S6J       0.054700
     27 H2          -4.4050    -2.4400    15.2050 h1         1 S6J       0.077700
     28 H3          -2.7060    -2.9750    15.4570 h1         1 S6J       0.077700
     29 H4          -6.7200     1.3260    18.2110 h1         1 S6J       0.061950
     30 H5          -5.2790     2.1550    18.8340 h1         1 S6J       0.061950
     31 H6          -5.3650     2.9150    21.3510 hc         1 S6J       0.100700
     32 H7          -7.8960     3.1240    19.5310 hc         1 S6J       0.102200
     33 H8          -8.3140     1.9830    21.7940 hc         1 S6J       0.102200
     34 H9          -3.0320     1.6720    17.1600 hc         1 S6J       0.047700
     35 H10         -1.5770     0.9610    16.4400 hc         1 S6J       0.047700
     36 H11         -2.6410     1.9880    15.4620 hc         1 S6J       0.047700
     37 H12         -4.4780     0.2930    15.6480 h1         1 S6J       0.069700
     38 H13         -5.3080    -1.7430    21.4430 ha         1 S6J       0.141000
     39 H14         -7.3230    -0.3090    21.4540 h1         1 S6J       0.061950
     40 H15         -5.8980     0.4700    22.1740 h1         1 S6J       0.061950
     41 H16         -7.9480     4.5360    21.7310 h1         1 S6J       0.021200
     42 H17         -6.6280     4.4200    22.9080 h1         1 S6J       0.021200
     43 H18         -6.5020     6.3270    21.6030 ho         1 S6J       0.444000
     44 H19         -3.0790     0.1480    13.0020 ho         1 S6J       0.453000
     45 C23         -6.8610     4.4200    21.8350 c3         1 S6J       0.190600
@<TRIPOS>BOND
     1     1     2 1   
     2     1    10 1   
     3     1    25 1   
     4     1    26 1   
     5     2    11 1   
     6     2    27 1   
     7     2    28 1   
     8     3     6 ar  
     9     3    12 ar  
    10     3    23 1   
    11     4     7 1   
    12     4    16 1   
    13     4    29 1   
    14     4    30 1   
    15     5     7 1   
    16     5     8 1   
    17     5    31 1   
    18     5    45 1   
    19     6    11 1   
    20     6    15 ar  
    21     7     8 1   
    22     7    32 1   
    23     8    17 1   
    24     8    33 1   
    25     9    10 1   
    26     9    34 1   
    27     9    35 1   
    28     9    36 1   
    29    10    11 1   
    30    10    37 1   
    31    12    13 ar  
    32    12    19 1   
    33    13    14 ar  
    34    13    38 1   
    35    14    15 ar  
    36    14    16 1   
    37    16    17 1   
    38    17    39 1   
    39    17    40 1   
    40    18    43 1   
    41    18    45 1   
    42    19    20 1   
    43    19    21 1   
    44    19    22 1   
    45    23    24 3   
    46    25    44 1   
    47    41    45 1   
    48    42    45 1   
@<TRIPOS>SUBSTRUCTURE
     1 S6J         1 TEMP              0 ****  ****    0 ROOT
