@<TRIPOS>MOLECULE
S6J
   45    48     1     0     0
SMALL
abcg2


@<TRIPOS>ATOM
      1 C4          -2.8890    -0.8930    14.7160 cy         1 S6J       0.130300
      2 C6          -2.7420    -2.0410    15.7220 cy         1 S6J       0.217800
      3 C9          -3.4810    -2.5200    18.7270 ca         1 S6J      -0.182000
      4 C20         -6.1410     1.6800    19.1200 c5         1 S6J       0.253300
      5 C21         -6.2840     3.0020    21.3070 cx         1 S6J      -0.098700
      6 C8          -3.7290    -1.3450    17.9730 ca         1 S6J       0.718900
      7 C18         -6.9100     2.6330    19.9970 cx         1 S6J      -0.135700
      8 C16         -7.3010     1.9050    21.2480 cx         1 S6J      -0.135700
      9 C1          -2.9830     1.3160    16.1180 c3         1 S6J      -0.088100
     10 C2          -3.5470    -0.0570    15.8400 cy         1 S6J       0.189500
     11 N7          -3.1610    -1.1170    16.7760 nn         1 S6J      -0.769300
     12 C10         -4.1620    -2.6420    19.9550 ca         1 S6J      -0.040300
     13 C11         -4.9970    -1.6610    20.4020 ca         1 S6J      -0.254000
     14 C12         -5.1410    -0.5010    19.5910 ca         1 S6J       0.696900
     15 N13         -4.5310    -0.3850    18.4180 nb         1 S6J      -0.834000
     16 N14         -5.9120     0.5230    19.9770 nh         1 S6J      -0.785300
     17 C15         -6.7740     0.4970    21.1520 c5         1 S6J       0.253300
     18 O24         -5.9310     5.3410    21.3510 oh         1 S6J      -0.655000
     19 C25         -3.9450    -3.8750    20.7890 c3         1 S6J       0.353300
     20 F26         -4.2330    -4.9840    20.1000 f          1 S6J      -0.106667
     21 F27         -4.6950    -3.8880    21.8890 f          1 S6J      -0.106667
     22 F28         -2.6690    -3.9710    21.1790 f          1 S6J      -0.106667
     23 C29         -2.5420    -3.4860    18.3060 cg         1 S6J       0.343000
     24 N30         -1.7590    -4.2690    17.9750 n1         1 S6J      -0.466000
     25 O31         -3.6620    -1.2250    13.6060 oh         1 S6J      -0.640000
     26 H1          -1.9170    -0.4760    14.4290 h1         1 S6J       0.054700
     27 H2          -3.4590    -2.8500    15.5540 h1         1 S6J       0.077700
     28 H3          -1.7430    -2.4580    15.8360 h1         1 S6J       0.077700
     29 H4          -6.7220     1.4040    18.2350 h1         1 S6J       0.061950
     30 H5          -5.1920     2.0890    18.7720 h1         1 S6J       0.061950
     31 H6          -5.2490     2.7020    21.4630 hc         1 S6J       0.100700
     32 H7          -7.5830     3.3310    19.5170 hc         1 S6J       0.102200
     33 H8          -8.2710     2.0490    21.7080 hc         1 S6J       0.102200
     34 H9          -3.4450     1.7620    16.9970 hc         1 S6J       0.047700
     35 H10         -1.9050     1.2720    16.2790 hc         1 S6J       0.047700
     36 H11         -3.1730     1.9720    15.2660 hc         1 S6J       0.047700
     37 H12         -4.6350    -0.0110    15.7190 h1         1 S6J       0.069700
     38 H13         -5.5260    -1.7520    21.3370 ha         1 S6J       0.141000
     39 H14         -7.5960    -0.2150    21.0240 h1         1 S6J       0.061950
     40 H15         -6.2120     0.2020    22.0410 h1         1 S6J       0.061950
     41 H16         -7.7470     4.4530    21.8490 h1         1 S6J       0.021200
     42 H17         -6.4600     4.2380    23.0320 h1         1 S6J       0.021200
     43 H18         -6.1020     6.1490    21.8420 ho         1 S6J       0.444000
     44 H19         -3.6800    -0.4700    13.0080 ho         1 S6J       0.453000
     45 C23         -6.6650     4.2980    21.9560 c3         1 S6J       0.190600
@<TRIPOS>BOND
     1     1     2 1   
     2     1    10 1   
     3     1    25 1   
     4     1    26 1   
     5     2    11 1   
     6     2    27 1   
     7     2    28 1   
     8     3     6 ar  
     9     3    12 ar  
    10     3    23 1   
    11     4     7 1   
    12     4    16 1   
    13     4    29 1   
    14     4    30 1   
    15     5     7 1   
    16     5     8 1   
    17     5    31 1   
    18     5    45 1   
    19     6    11 1   
    20     6    15 ar  
    21     7     8 1   
    22     7    32 1   
    23     8    17 1   
    24     8    33 1   
    25     9    10 1   
    26     9    34 1   
    27     9    35 1   
    28     9    36 1   
    29    10    11 1   
    30    10    37 1   
    31    12    13 ar  
    32    12    19 1   
    33    13    14 ar  
    34    13    38 1   
    35    14    15 ar  
    36    14    16 1   
    37    16    17 1   
    38    17    39 1   
    39    17    40 1   
    40    18    43 1   
    41    18    45 1   
    42    19    20 1   
    43    19    21 1   
    44    19    22 1   
    45    23    24 3   
    46    25    44 1   
    47    41    45 1   
    48    42    45 1   
@<TRIPOS>SUBSTRUCTURE
     1 S6J         1 TEMP              0 ****  ****    0 ROOT
