@<TRIPOS>MOLECULE
S6L
   52    55     1     0     0
SMALL
bcc


@<TRIPOS>ATOM
      1 O1           7.1680    -0.4880    -0.3300 o          1 S6L      -0.560100
      2 C22          6.7900     0.5210    -0.8940 c          1 S6L       0.671100
      3 C23          7.6810     1.3250    -1.8250 c3         1 S6L       0.069800
      4 N4           8.8910     0.6020    -2.1450 n8         1 S6L      -0.862800
      5 N3           5.5570     1.0670    -0.7340 ns         1 S6L      -0.480100
      6 C19          4.4900     0.6050     0.0470 ca         1 S6L       0.047600
      7 C18          4.6340    -0.2560     1.1350 ca         1 S6L      -0.136000
      8 C17          3.5220    -0.6480     1.8650 ca         1 S6L      -0.142500
      9 C20          3.2130     1.0650    -0.2720 ca         1 S6L      -0.136000
     10 C21          2.1040     0.6870     0.4650 ca         1 S6L      -0.142500
     11 C16          2.2570    -0.1810     1.5380 ca         1 S6L       0.104100
     12 O            1.2220    -0.5750     2.3370 os         1 S6L      -0.253200
     13 C10         -0.0450    -0.6310     1.8120 ca         1 S6L       0.097100
     14 C9          -1.0340     0.1370     2.4240 ca         1 S6L      -0.136000
     15 C8          -2.3490     0.0730     1.9800 ca         1 S6L      -0.113000
     16 C11         -0.3250    -1.4700     0.7430 ca         1 S6L      -0.126000
     17 C12         -1.6350    -1.5260     0.2870 ca         1 S6L      -0.007800
     18 C7          -2.6300    -0.7580     0.9120 ca         1 S6L      -0.060200
     19 C13         -2.2910    -2.2630    -0.7550 cc         1 S6L      -0.160900
     20 C15         -1.7170    -3.1740    -1.6460 cg         1 S6L       0.242500
     21 N2          -1.2360    -3.9280    -2.3810 n1         1 S6L      -0.405800
     22 C14         -3.6420    -1.9100    -0.7190 cd         1 S6L       0.253900
     23 N1          -4.6210    -2.3030    -1.5540 nv         1 S6L      -0.838600
     24 N           -3.8400    -1.0180     0.2840 na         1 S6L      -0.084400
     25 C6          -5.0700    -0.3260     0.6110 c3         1 S6L       0.099600
     26 C3          -5.0960     1.0870     0.0860 ca         1 S6L      -0.122300
     27 C2          -4.9300     1.3420    -1.2740 ca         1 S6L      -0.109000
     28 C1          -4.9560     2.6440    -1.7520 ca         1 S6L      -0.127000
     29 C4          -5.2900     2.1530     0.9550 ca         1 S6L      -0.109000
     30 C5          -5.3200     3.4580     0.4780 ca         1 S6L      -0.127000
     31 C           -5.1500     3.7060    -0.8760 ca         1 S6L      -0.115000
     32 H231         7.1340     1.5300    -2.7490 h1         1 S6L       0.042700
     33 H232         7.8420     2.3050    -1.3500 h1         1 S6L       0.042700
     34 H3           5.3480     1.8710    -1.3080 hn         1 S6L       0.312500
     35 H41N         9.4210     1.1410    -2.8160 hn         1 S6L       0.348800
     36 H42N         9.4750     0.5290    -1.3230 hn         1 S6L       0.348800
     37 H18          5.6030    -0.6280     1.4260 ha         1 S6L       0.145000
     38 H20          3.0790     1.7390    -1.1100 ha         1 S6L       0.145000
     39 H17          3.6460    -1.3190     2.7050 ha         1 S6L       0.147500
     40 H21          1.1310     1.0740     0.1910 ha         1 S6L       0.147500
     41 H9          -0.7750     0.7790     3.2550 ha         1 S6L       0.147000
     42 H11          0.4540    -2.0660     0.2820 ha         1 S6L       0.158000
     43 H8          -3.1110     0.6690     2.4640 ha         1 S6L       0.136000
     44 H11N        -4.4310    -3.1050    -2.1340 hn         1 S6L       0.426300
     45 H12N        -5.5790    -2.2590    -1.2470 hn         1 S6L       0.426300
     46 H61C        -5.9150    -0.8960     0.2230 h1         1 S6L       0.060700
     47 H62C        -5.1860    -0.3340     1.6960 h1         1 S6L       0.060700
     48 H2          -4.7890     0.5230    -1.9700 ha         1 S6L       0.134500
     49 H4          -5.4200     1.9690     2.0150 ha         1 S6L       0.134500
     50 H1          -4.8290     2.8290    -2.8110 ha         1 S6L       0.135500
     51 H           -5.1700     4.7220    -1.2500 ha         1 S6L       0.134000
     52 H5          -5.4710     4.2790     1.1670 ha         1 S6L       0.135500
@<TRIPOS>BOND
     1     1     2 2   
     2     2     3 1   
     3     2     5 1   
     4     3     4 1   
     5     3    32 1   
     6     3    33 1   
     7     4    35 1   
     8     4    36 1   
     9     5     6 1   
    10     5    34 1   
    11     6     7 ar  
    12     6     9 ar  
    13     7     8 ar  
    14     7    37 1   
    15     8    11 ar  
    16     8    39 1   
    17     9    10 ar  
    18     9    38 1   
    19    10    11 ar  
    20    10    40 1   
    21    11    12 1   
    22    12    13 1   
    23    13    14 ar  
    24    13    16 ar  
    25    14    15 ar  
    26    14    41 1   
    27    15    18 ar  
    28    15    43 1   
    29    16    17 ar  
    30    16    42 1   
    31    17    18 ar  
    32    17    19 1   
    33    18    24 1   
    34    19    20 1   
    35    19    22 2   
    36    20    21 3   
    37    22    23 1   
    38    22    24 1   
    39    23    44 1   
    40    23    45 1   
    41    24    25 1   
    42    25    26 1   
    43    25    46 1   
    44    25    47 1   
    45    26    27 ar  
    46    26    29 ar  
    47    27    28 ar  
    48    27    48 1   
    49    28    31 ar  
    50    28    50 1   
    51    29    30 ar  
    52    29    49 1   
    53    30    31 ar  
    54    30    52 1   
    55    31    51 1   
@<TRIPOS>SUBSTRUCTURE
     1 S6L         1 TEMP              0 ****  ****    0 ROOT
