@<TRIPOS>MOLECULE
S6L
   52    55     1     0     0
SMALL
No Charge or Current Charge


@<TRIPOS>ATOM
      1 O1           7.5660    -0.3660     0.1750 o          1 S6L      -0.560100
      2 C22          7.1130     0.2580    -0.7820 c          1 S6L       0.604100
      3 C23          8.0030     0.6860    -2.0000 c3         1 S6L       0.069800
      4 N4           9.3200    -0.0200    -2.1940 n8         1 S6L      -0.973200
      5 N3           5.7860     0.6580    -0.8980 ns         1 S6L      -0.154000
      6 C19          4.6530     0.4960    -0.0510 ca         1 S6L      -0.045000
      7 C18          4.6960    -0.1660     1.1970 ca         1 S6L      -0.118000
      8 C17          3.5320    -0.2860     1.9780 ca         1 S6L      -0.124500
      9 C20          3.4290     1.0370    -0.4930 ca         1 S6L      -0.118000
     10 C21          2.2670     0.9170     0.2890 ca         1 S6L      -0.124500
     11 C16          2.3160     0.2440     1.5230 ca         1 S6L       0.104100
     12 O            1.1950     0.1220     2.3140 os         1 S6L      -0.253200
     13 C10         -0.0590    -0.1220     1.8010 ca         1 S6L       0.097100
     14 C9          -1.1770     0.4880     2.4140 ca         1 S6L      -0.118000
     15 C8          -2.4790     0.2550     1.9240 ca         1 S6L      -0.095000
     16 C11         -0.2380    -0.9900     0.7000 ca         1 S6L      -0.108000
     17 C12         -1.5430    -1.2010     0.2350 ca         1 S6L      -0.007800
     18 C7          -2.6290    -0.6030     0.8210 ca         1 S6L      -0.060200
     19 C13         -2.0200    -2.0070    -0.8550 cc         1 S6L      -0.160900
     20 C15         -1.2490    -2.8000    -1.7460 cg         1 S6L       0.331700
     21 N2          -0.5930    -3.4410    -2.4690 n1         1 S6L      -0.495000
     22 C14         -3.3970    -1.8470    -0.8750 cd         1 S6L       0.253900
     23 N1          -4.3150    -2.3950    -1.7310 nv         1 S6L      -0.949000
     24 N           -3.7950    -0.9800     0.1680 na         1 S6L      -0.113700
     25 C6          -5.1430    -0.5160     0.5530 c3         1 S6L       0.128900
     26 C3          -5.4210     0.9500     0.2230 ca         1 S6L      -0.122300
     27 C2          -4.9290     1.5380    -0.9630 ca         1 S6L      -0.091000
     28 C1          -5.1940     2.8880    -1.2490 ca         1 S6L      -0.109000
     29 C4          -6.1880     1.7320     1.1100 ca         1 S6L      -0.091000
     30 C5          -6.4530     3.0820     0.8220 ca         1 S6L      -0.109000
     31 C           -5.9550     3.6620    -0.3570 ca         1 S6L      -0.097000
     32 H231         7.4050     0.5490    -2.9120 h1         1 S6L       0.042700
     33 H232         8.1940     1.7630    -1.8940 h1         1 S6L       0.042700
     34 H3           5.5840     1.1640    -1.7510 hn         1 S6L       0.146000
     35 H41N         9.8510     0.4360    -2.9480 hn         1 S6L       0.404000
     36 H42N         9.9090     0.1200    -1.3610 hn         1 S6L       0.404000
     37 H18          5.6160    -0.5940     1.5820 ha         1 S6L       0.127000
     38 H20          3.3770     1.5570    -1.4470 ha         1 S6L       0.127000
     39 H17          3.5720    -0.7950     2.9380 ha         1 S6L       0.129500
     40 H21          1.3340     1.3500    -0.0640 ha         1 S6L       0.129500
     41 H9          -1.0300     1.1460     3.2670 ha         1 S6L       0.129000
     42 H11          0.6080    -1.4820     0.2270 ha         1 S6L       0.140000
     43 H8          -3.3380     0.7310     2.3910 ha         1 S6L       0.118000
     44 H11N        -4.0040    -2.9280    -2.5410 hn         1 S6L       0.481500
     45 H12N        -5.2800    -2.0730    -1.7350 hn         1 S6L       0.481500
     46 H61C        -5.8960    -1.1410     0.0600 h1         1 S6L       0.060700
     47 H62C        -5.2570    -0.6740     1.6330 h1         1 S6L       0.060700
     48 H2          -4.3400     0.9530    -1.6660 ha         1 S6L       0.116500
     49 H4          -6.5800     1.2940     2.0260 ha         1 S6L       0.116500
     50 H1          -4.8100     3.3350    -2.1640 ha         1 S6L       0.117500
     51 H           -6.1610     4.7070    -0.5800 ha         1 S6L       0.116000
     52 H5          -7.0450     3.6790     1.5130 ha         1 S6L       0.117500
@<TRIPOS>BOND
     1     1     2 2   
     2     2     3 1   
     3     2     5 1   
     4     3     4 1   
     5     3    32 1   
     6     3    33 1   
     7     4    35 1   
     8     4    36 1   
     9     5     6 1   
    10     5    34 1   
    11     6     7 ar  
    12     6     9 ar  
    13     7     8 ar  
    14     7    37 1   
    15     8    11 ar  
    16     8    39 1   
    17     9    10 ar  
    18     9    38 1   
    19    10    11 ar  
    20    10    40 1   
    21    11    12 1   
    22    12    13 1   
    23    13    14 ar  
    24    13    16 ar  
    25    14    15 ar  
    26    14    41 1   
    27    15    18 ar  
    28    15    43 1   
    29    16    17 ar  
    30    16    42 1   
    31    17    18 ar  
    32    17    19 1   
    33    18    24 1   
    34    19    20 1   
    35    19    22 2   
    36    20    21 3   
    37    22    23 1   
    38    22    24 1   
    39    23    44 1   
    40    23    45 1   
    41    24    25 1   
    42    25    26 1   
    43    25    46 1   
    44    25    47 1   
    45    26    27 ar  
    46    26    29 ar  
    47    27    28 ar  
    48    27    48 1   
    49    28    31 ar  
    50    28    50 1   
    51    29    30 ar  
    52    29    49 1   
    53    30    31 ar  
    54    30    52 1   
    55    31    51 1   
@<TRIPOS>SUBSTRUCTURE
     1 S6L         1 TEMP              0 ****  ****    0 ROOT
