@<TRIPOS>MOLECULE
S6N
   39    41     1     0     0
SMALL
abcg2


@<TRIPOS>ATOM
      1 C17        -46.4360   -28.9240     5.9580 ca         1 S6N       0.123500
      2 C15        -48.4710   -28.9450     5.0760 cc         1 S6N      -0.164100
      3 C14        -47.6950   -29.6230     4.1840 cd         1 S6N      -0.182200
      4 C13        -46.3770   -29.6220     4.7310 ca         1 S6N      -0.162800
      5 C12        -45.1180   -30.0970     4.3900 ca         1 S6N       0.142500
      6 C11        -44.9040   -30.9630     3.1750 c          1 S6N       0.513600
      7 C19        -44.2710   -29.2210     6.3190 ca         1 S6N       0.127900
      8 C02        -44.8260   -31.1420     0.7130 c6         1 S6N       0.137400
      9 C03        -44.9470   -30.1480    -0.4550 c6         1 S6N      -0.080400
     10 C04        -46.0980   -29.1630    -0.3030 c6         1 S6N      -0.046400
     11 C05        -46.0090   -28.3760     1.0190 c6         1 S6N      -0.208700
     12 C06        -45.8060   -26.8550     0.8370 c          1 S6N       0.718000
     13 C09        -44.8420   -28.9100     1.8460 c6         1 S6N       0.109000
     14 C22        -43.4830   -31.8630     0.5900 c3         1 S6N      -0.098600
     15 N10        -44.8960   -30.3630     1.9780 n          1 S6N      -0.382800
     16 N16        -47.7140   -28.5250     6.1410 na         1 S6N      -0.325400
     17 N18        -45.4050   -28.7090     6.7610 nb         1 S6N      -0.201000
     18 N20        -44.0770   -29.9030     5.1880 nb         1 S6N      -0.187000
     19 O07        -44.9560   -26.5070    -0.0080 o          1 S6N      -0.727000
     20 O08        -46.4780   -26.1060     1.5730 o          1 S6N      -0.727000
     21 O21        -44.7880   -32.1650     3.3760 o          1 S6N      -0.629100
     22 H151       -49.5250   -28.7230     5.0380 h4         1 S6N       0.211000
     23 H141       -48.0270   -30.0670     3.2600 ha         1 S6N       0.220000
     24 H191       -43.3970   -29.0730     6.9420 h5         1 S6N       0.039100
     25 H012       -45.8770   -32.9510     1.3510 hc         1 S6N       0.038033
     26 H011       -46.9440   -31.6570     0.8090 hc         1 S6N       0.038033
     27 H013       -46.0090   -32.5840    -0.3640 hc         1 S6N       0.038033
     28 H031       -45.0620   -30.7340    -1.3700 hc         1 S6N       0.039700
     29 H032       -44.0090   -29.5990    -0.5700 hc         1 S6N       0.039700
     30 H042       -46.0900   -28.4850    -1.1570 hc         1 S6N       0.032700
     31 H041       -47.0470   -29.7010    -0.3510 hc         1 S6N       0.032700
     32 H051       -46.9180   -28.5380     1.6040 hc         1 S6N       0.039700
     33 H092       -43.8910   -28.6340     1.3840 h1         1 S6N       0.056700
     34 H091       -44.8420   -28.4490     2.8310 h1         1 S6N       0.056700
     35 H222       -43.3640   -32.6460     1.3370 hc         1 S6N       0.038033
     36 H221       -43.4080   -32.3260    -0.3960 hc         1 S6N       0.038033
     37 H223       -42.6550   -31.1600     0.6910 hc         1 S6N       0.038033
     38 H161       -48.0570   -28.0010     6.9310 hn         1 S6N       0.354000
     39 C01        -45.9830   -32.1420     0.6330 c3         1 S6N      -0.098600
@<TRIPOS>BOND
     1     1     4 ar  
     2     1    16 1   
     3     1    17 ar  
     4     2     3 2   
     5     2    16 1   
     6     2    22 1   
     7     3     4 1   
     8     3    23 1   
     9     4     5 ar  
    10     5     6 1   
    11     5    18 ar  
    12     6    15 1   
    13     6    21 2   
    14     7    17 ar  
    15     7    18 ar  
    16     7    24 1   
    17     8     9 1   
    18     8    14 1   
    19     8    15 1   
    20     8    39 1   
    21     9    10 1   
    22     9    28 1   
    23     9    29 1   
    24    10    11 1   
    25    10    30 1   
    26    10    31 1   
    27    11    12 1   
    28    11    13 1   
    29    11    32 1   
    30    12    19 1   
    31    12    20 1   
    32    13    15 1   
    33    13    33 1   
    34    13    34 1   
    35    14    35 1   
    36    14    36 1   
    37    14    37 1   
    38    16    38 1   
    39    25    39 1   
    40    26    39 1   
    41    27    39 1   
@<TRIPOS>SUBSTRUCTURE
     1 S6N         1 TEMP              0 ****  ****    0 ROOT
