@<TRIPOS>MOLECULE
S6N
   39    41     1     0     0
SMALL
No Charge or Current Charge


@<TRIPOS>ATOM
      1 C17        -46.4620   -28.9340     5.9760 ca         1 S6N       0.123500
      2 C15        -48.4120   -28.8440     4.7320 cc         1 S6N      -0.164100
      3 C14        -47.4520   -29.5710     4.0500 cd         1 S6N      -0.182200
      4 C13        -46.2300   -29.6220     4.8120 ca         1 S6N      -0.162800
      5 C12        -44.9840   -30.2380     4.5740 ca         1 S6N       0.142500
      6 C11        -44.6710   -31.0050     3.3020 c          1 S6N       0.513600
      7 C19        -44.3440   -29.4570     6.6580 ca         1 S6N       0.127900
      8 C02        -44.8980   -31.1090     0.7310 c6         1 S6N       0.137400
      9 C03        -45.2340   -30.1490    -0.4680 c6         1 S6N      -0.080400
     10 C04        -46.3790   -29.1720    -0.1300 c6         1 S6N      -0.046400
     11 C05        -45.9890   -28.2610     1.0660 c6         1 S6N      -0.208700
     12 C06        -45.6210   -26.8250     0.6350 c          1 S6N       0.718000
     13 C09        -44.8590   -28.8790     1.9360 c6         1 S6N       0.109000
     14 C22        -43.4910   -31.7130     0.4240 c3         1 S6N      -0.098600
     15 N10        -44.9400   -30.3690     2.0530 n          1 S6N      -0.382800
     16 N16        -47.7640   -28.4560     5.9270 na         1 S6N      -0.325400
     17 N18        -45.5180   -28.8340     6.9290 nb         1 S6N      -0.201000
     18 N20        -44.0310   -30.1550     5.5370 nb         1 S6N      -0.187000
     19 O07        -44.6450   -26.6640    -0.0830 o          1 S6N      -0.727000
     20 O08        -46.3250   -25.9100     1.0330 o          1 S6N      -0.727000
     21 O21        -44.2480   -32.1550     3.3710 o          1 S6N      -0.629100
     22 H151       -49.4400   -28.5900     4.4850 h4         1 S6N       0.211000
     23 H141       -47.6130   -30.0430     3.0820 ha         1 S6N       0.220000
     24 H191       -43.5710   -29.3900     7.4220 h5         1 S6N       0.039100
     25 H012       -45.7110   -33.0500     1.4420 hc         1 S6N       0.038033
     26 H011       -46.9550   -31.8950     0.9680 hc         1 S6N       0.038033
     27 H013       -46.0110   -32.7460    -0.2630 hc         1 S6N       0.038033
     28 H031       -45.4930   -30.7270    -1.3660 hc         1 S6N       0.039700
     29 H032       -44.3460   -29.5630    -0.7470 hc         1 S6N       0.039700
     30 H042       -46.6320   -28.5650    -1.0100 hc         1 S6N       0.032700
     31 H041       -47.2890   -29.7370     0.1160 hc         1 S6N       0.032700
     32 H051       -46.8810   -28.1720     1.6980 hc         1 S6N       0.039700
     33 H092       -43.8850   -28.6420     1.4830 h1         1 S6N       0.056700
     34 H091       -44.8550   -28.3870     2.9170 h1         1 S6N       0.056700
     35 H222       -43.2250   -32.5310     1.1020 hc         1 S6N       0.038033
     36 H221       -43.4490   -32.1240    -0.5920 hc         1 S6N       0.038033
     37 H223       -42.7070   -30.9500     0.5040 hc         1 S6N       0.038033
     38 H161       -48.1890   -27.9040     6.6660 hn         1 S6N       0.354000
     39 C01        -45.9530   -32.2630     0.7200 c3         1 S6N      -0.098600
@<TRIPOS>BOND
     1     1     4 ar  
     2     1    16 1   
     3     1    17 ar  
     4     2     3 2   
     5     2    16 1   
     6     2    22 1   
     7     3     4 1   
     8     3    23 1   
     9     4     5 ar  
    10     5     6 1   
    11     5    18 ar  
    12     6    15 1   
    13     6    21 2   
    14     7    17 ar  
    15     7    18 ar  
    16     7    24 1   
    17     8     9 1   
    18     8    14 1   
    19     8    15 1   
    20     8    39 1   
    21     9    10 1   
    22     9    28 1   
    23     9    29 1   
    24    10    11 1   
    25    10    30 1   
    26    10    31 1   
    27    11    12 1   
    28    11    13 1   
    29    11    32 1   
    30    12    19 1   
    31    12    20 1   
    32    13    15 1   
    33    13    33 1   
    34    13    34 1   
    35    14    35 1   
    36    14    36 1   
    37    14    37 1   
    38    16    38 1   
    39    25    39 1   
    40    26    39 1   
    41    27    39 1   
@<TRIPOS>SUBSTRUCTURE
     1 S6N         1 TEMP              0 ****  ****    0 ROOT
