@<TRIPOS>MOLECULE
S6O
   58    60     1     0     0
SMALL
No Charge or Current Charge


@<TRIPOS>ATOM
      1 C2          19.1940    18.4830    -4.5950 cc         1 S6O      -0.134200
      2 C7          14.0640    19.5140    -0.1310 c          1 S6O       0.583100
      3 C6          14.2260    19.6930    -2.6980 c3         1 S6O       0.079000
      4 C4          17.5480    20.4120    -4.9360 ca         1 S6O       0.386000
      5 C10         13.2880    21.9540    -0.2510 c3         1 S6O      -0.099100
      6 C9          14.8590    21.3080     1.6060 c3         1 S6O      -0.099100
      7 C15         18.5260    19.2160    -0.2020 ca         1 S6O      -0.072000
      8 C13         19.1320    21.1060    -1.6040 ca         1 S6O      -0.072000
      9 O           15.5880    21.4790    -0.6960 os         1 S6O      -0.364100
     10 C           21.2460    16.9960    -4.3040 cf         1 S6O       0.686500
     11 N           22.5560    16.9440    -4.4870 nv         1 S6O      -1.026200
     12 C3          18.8480    19.8730    -4.8110 ca         1 S6O      -0.132800
     13 C1          20.5700    18.2800    -4.5210 cd         1 S6O      -0.201000
     14 C5          16.0470    18.9440    -3.5660 c3         1 S6O       0.206800
     15 C11         16.8540    20.9180    -0.7400 ca         1 S6O       0.133100
     16 C8          14.4740    21.0230     0.1230 c3         1 S6O       0.127000
     17 C12         17.8200    21.6000    -1.5000 ca         1 S6O      -0.154000
     18 C14         19.4830    19.9130    -0.9550 ca         1 S6O       0.090000
     19 S           21.4940    19.8040    -4.7350 ss         1 S6O       0.091400
     20 C16         17.2140    19.7130    -0.0910 ca         1 S6O      -0.154000
     21 C17         13.4040    17.5920    -1.6060 c3         1 S6O       0.070300
     22 C18         15.3320    19.6920    -5.8650 c3         1 S6O       0.218100
     23 C19         17.4200    21.7970    -5.1640 ca         1 S6O      -0.205000
     24 C20         18.5610    22.6210    -5.2600 ca         1 S6O      -0.051000
     25 C21         19.8460    22.0610    -5.1360 ca         1 S6O      -0.137000
     26 C22         19.9630    20.6820    -4.9130 ca         1 S6O      -0.123000
     27 N1          20.6220    15.9420    -3.9690 n2         1 S6O      -0.838100
     28 N2          16.3940    19.6020    -4.8420 nh         1 S6O      -0.843400
     29 N3          13.8510    18.9950    -1.4430 n          1 S6O      -0.401800
     30 O1          13.8750    18.7670     0.8260 o          1 S6O      -0.600100
     31 Cl          21.1250    19.2940    -1.0720 cl         1 S6O      -0.200000
     32 H3          18.4610    17.6840    -4.5230 ha         1 S6O       0.201000
     33 H6          14.3210    20.7720    -2.5620 h1         1 S6O       0.058700
     34 H7          13.4170    19.5480    -3.4260 h1         1 S6O       0.058700
     35 H12         13.5660    23.0070    -0.1270 hc         1 S6O       0.055700
     36 H13         12.9570    21.8130    -1.2840 hc         1 S6O       0.055700
     37 H11         12.4270    21.7540     0.3980 hc         1 S6O       0.055700
     38 H9          15.1990    22.3440     1.7260 hc         1 S6O       0.055700
     39 H10         13.9940    21.1610     2.2650 hc         1 S6O       0.055700
     40 H8          15.6570    20.6490     1.9610 hc         1 S6O       0.055700
     41 H15         19.8740    21.6450    -2.1870 ha         1 S6O       0.132000
     42 H           22.9870    16.0290    -4.5280 hn         1 S6O       0.467000
     43 H27         23.0160    17.6950    -4.9840 hn         1 S6O       0.467000
     44 H5          15.9400    17.8620    -3.7240 h1         1 S6O       0.061200
     45 H4          16.8590    19.0800    -2.8390 h1         1 S6O       0.061200
     46 H14         17.5490    22.5210    -2.0100 ha         1 S6O       0.131000
     47 H17         16.5090    19.1450     0.5020 ha         1 S6O       0.131000
     48 H19         12.4480    17.4450    -1.0870 h1         1 S6O       0.046700
     49 H18         13.2690    17.3480    -2.6670 h1         1 S6O       0.046700
     50 H20         14.1530    16.9120    -1.1800 h1         1 S6O       0.046700
     51 H22         14.7790    18.7450    -5.9310 h1         1 S6O       0.036367
     52 H21         14.6240    20.4940    -5.6190 h1         1 S6O       0.036367
     53 H23         15.7670    19.8970    -6.8520 h1         1 S6O       0.036367
     54 H24         16.4330    22.2400    -5.2550 ha         1 S6O       0.124000
     55 H25         18.4490    23.6890    -5.4320 ha         1 S6O       0.110000
     56 H26         20.7310    22.6880    -5.2120 ha         1 S6O       0.125000
     57 H1          19.6510    16.2060    -3.7690 hn         1 S6O       0.391400
     58 H16         18.8020    18.2910     0.2990 ha         1 S6O       0.132000
@<TRIPOS>BOND
     1     1    12 1   
     2     1    13 2   
     3     1    32 1   
     4     2    16 1   
     5     2    29 1   
     6     2    30 2   
     7     3    14 1   
     8     3    29 1   
     9     3    33 1   
    10     3    34 1   
    11     4    12 ar  
    12     4    23 ar  
    13     4    28 1   
    14     5    16 1   
    15     5    35 1   
    16     5    36 1   
    17     5    37 1   
    18     6    16 1   
    19     6    38 1   
    20     6    39 1   
    21     6    40 1   
    22     7    18 ar  
    23     7    20 ar  
    24     7    58 1   
    25     8    17 ar  
    26     8    18 ar  
    27     8    41 1   
    28     9    15 1   
    29     9    16 1   
    30    10    11 1   
    31    10    13 1   
    32    10    27 2   
    33    11    42 1   
    34    11    43 1   
    35    12    26 ar  
    36    13    19 1   
    37    14    28 1   
    38    14    44 1   
    39    14    45 1   
    40    15    17 ar  
    41    15    20 ar  
    42    17    46 1   
    43    18    31 1   
    44    19    26 1   
    45    20    47 1   
    46    21    29 1   
    47    21    48 1   
    48    21    49 1   
    49    21    50 1   
    50    22    28 1   
    51    22    51 1   
    52    22    52 1   
    53    22    53 1   
    54    23    24 ar  
    55    23    54 1   
    56    24    25 ar  
    57    24    55 1   
    58    25    26 ar  
    59    25    56 1   
    60    27    57 1   
@<TRIPOS>SUBSTRUCTURE
     1 S6O         1 TEMP              0 ****  ****    0 ROOT
