@<TRIPOS>MOLECULE
S6O
   58    60     1     0     0
SMALL
abcg2


@<TRIPOS>ATOM
      1 C2          19.4570    18.2470    -5.7090 cc         1 S6O      -0.134200
      2 C7          13.6470    20.1220    -0.6670 c          1 S6O       0.583100
      3 C6          14.9500    19.6140    -2.7730 c3         1 S6O       0.079000
      4 C4          18.0210    19.7230    -4.1330 ca         1 S6O       0.386000
      5 C10         13.5970    22.4550    -1.5650 c3         1 S6O      -0.099100
      6 C9          13.9090    22.1160     0.8660 c3         1 S6O      -0.099100
      7 C15         17.3600    19.5620     1.7770 ca         1 S6O      -0.072000
      8 C13         18.8430    21.2190     0.8620 ca         1 S6O      -0.072000
      9 O           15.6430    21.6060    -0.7570 os         1 S6O      -0.364100
     10 C           21.2000    17.3010    -7.2830 cf         1 S6O       0.686500
     11 N           21.8920    17.7620    -8.3690 nv         1 S6O      -1.026200
     12 C3          19.1040    19.4540    -5.0180 ca         1 S6O      -0.132800
     13 C1          20.5800    18.3560    -6.4590 cd         1 S6O      -0.201000
     14 C5          16.2810    18.8620    -2.6270 c3         1 S6O       0.206800
     15 C11         16.5500    21.1050     0.1130 ca         1 S6O       0.133100
     16 C8          14.2360    21.5470    -0.5130 c3         1 S6O       0.127000
     17 C12         17.8140    21.6930     0.0700 ca         1 S6O      -0.154000
     18 C14         18.6100    20.1520     1.7170 ca         1 S6O       0.090000
     19 S           21.2880    19.9390    -6.3590 ss         1 S6O       0.091400
     20 C16         16.3300    20.0330     0.9740 ca         1 S6O      -0.154000
     21 C17         13.3690    18.0270    -1.8370 c3         1 S6O       0.070300
     22 C18         16.6110    17.7920    -4.7980 c3         1 S6O       0.218100
     23 C19         18.0140    20.9770    -3.5140 ca         1 S6O      -0.205000
     24 C20         18.9900    21.9380    -3.7600 ca         1 S6O      -0.051000
     25 C21         20.0220    21.7150    -4.6500 ca         1 S6O      -0.137000
     26 C22         20.0540    20.4680    -5.2660 ca         1 S6O      -0.123000
     27 N1          21.1590    16.0540    -7.0130 n2         1 S6O      -0.838100
     28 N2          17.0400    18.8010    -3.8570 nh         1 S6O      -0.843400
     29 N3          14.0150    19.3230    -1.6970 n          1 S6O      -0.401800
     30 O1          12.8010    19.7700     0.1430 o          1 S6O      -0.600100
     31 CL          19.8920    19.5570     2.7220 cl         1 S6O      -0.200000
     32 H3          18.9010    17.3240    -5.6620 ha         1 S6O       0.201000
     33 H6          15.1300    20.6780    -2.8720 h1         1 S6O       0.058700
     34 H7          14.4680    19.3060    -3.7050 h1         1 S6O       0.058700
     35 H12         13.9240    23.4840    -1.4120 hc         1 S6O       0.055700
     36 H13         13.8400    22.1700    -2.5860 hc         1 S6O       0.055700
     37 H11         12.5130    22.4290    -1.4600 hc         1 S6O       0.055700
     38 H9          14.3820    23.0940     0.9630 hc         1 S6O       0.055700
     39 H10         12.8360    22.2560     0.9750 hc         1 S6O       0.055700
     40 H8          14.2430    21.4910     1.6920 hc         1 S6O       0.055700
     41 H15         19.8180    21.6860     0.8160 ha         1 S6O       0.132000
     42 H           22.2350    17.0490    -8.9940 hn         1 S6O       0.467000
     43 H27         21.5350    18.5740    -8.8480 hn         1 S6O       0.467000
     44 H5          16.0890    17.8330    -2.3100 h1         1 S6O       0.061200
     45 H4          16.8910    19.3060    -1.8420 h1         1 S6O       0.061200
     46 H14         17.9890    22.5280    -0.5970 ha         1 S6O       0.131000
     47 H17         15.3700    19.5430     1.0510 ha         1 S6O       0.131000
     48 H19         12.6270    17.8810    -1.0610 h1         1 S6O       0.046700
     49 H18         12.8760    17.9640    -2.8080 h1         1 S6O       0.046700
     50 H20         14.0960    17.2170    -1.7720 h1         1 S6O       0.046700
     51 H22         17.0880    16.8210    -4.6340 h1         1 S6O       0.036367
     52 H21         15.5350    17.6390    -4.7030 h1         1 S6O       0.036367
     53 H23         16.7920    18.1040    -5.8250 h1         1 S6O       0.036367
     54 H24         17.2140    21.2380    -2.8360 ha         1 S6O       0.124000
     55 H25         18.9190    22.8900    -3.2500 ha         1 S6O       0.110000
     56 H26         20.7740    22.4660    -4.8500 ha         1 S6O       0.125000
     57 H1          20.7210    15.8910    -6.1140 hn         1 S6O       0.391400
     58 H16         17.1760    18.7300     2.4430 ha         1 S6O       0.132000
@<TRIPOS>BOND
     1     1    12 1   
     2     1    13 2   
     3     1    32 1   
     4     2    16 1   
     5     2    29 1   
     6     2    30 2   
     7     3    14 1   
     8     3    29 1   
     9     3    33 1   
    10     3    34 1   
    11     4    12 ar  
    12     4    23 ar  
    13     4    28 1   
    14     5    16 1   
    15     5    35 1   
    16     5    36 1   
    17     5    37 1   
    18     6    16 1   
    19     6    38 1   
    20     6    39 1   
    21     6    40 1   
    22     7    18 ar  
    23     7    20 ar  
    24     7    58 1   
    25     8    17 ar  
    26     8    18 ar  
    27     8    41 1   
    28     9    15 1   
    29     9    16 1   
    30    10    11 1   
    31    10    13 1   
    32    10    27 2   
    33    11    42 1   
    34    11    43 1   
    35    12    26 ar  
    36    13    19 1   
    37    14    28 1   
    38    14    44 1   
    39    14    45 1   
    40    15    17 ar  
    41    15    20 ar  
    42    17    46 1   
    43    18    31 1   
    44    19    26 1   
    45    20    47 1   
    46    21    29 1   
    47    21    48 1   
    48    21    49 1   
    49    21    50 1   
    50    22    28 1   
    51    22    51 1   
    52    22    52 1   
    53    22    53 1   
    54    23    24 ar  
    55    23    54 1   
    56    24    25 ar  
    57    24    55 1   
    58    25    26 ar  
    59    25    56 1   
    60    27    57 1   
@<TRIPOS>SUBSTRUCTURE
     1 S6O         1 TEMP              0 ****  ****    0 ROOT
