@<TRIPOS>MOLECULE
S6R
   72    76     1     0     0
SMALL
abcg2


@<TRIPOS>ATOM
      1 C10         96.3210   119.3050   119.9640 ca         1 S6R      -0.116300
      2 C13         96.6000   120.7520   117.5920 ca         1 S6R      -0.108000
      3 C15         97.5700   119.7580   119.5550 ca         1 S6R      -0.090500
      4 C17         94.8480   114.2330   119.6870 ca         1 S6R      -0.062000
      5 C20         94.1690   110.4710   118.4870 c          1 S6R       0.711000
      6 C24         94.8440   108.9310   114.9960 c6         1 S6R       0.091500
      7 C26         96.5200   107.1080   114.7780 c          1 S6R       0.612700
      8 C28         95.7180   105.7450   112.8490 ca         1 S6R      -0.077000
      9 C02         95.6370   112.6940   116.9800 c          1 S6R       0.619100
     10 C04         96.0790   113.9990   119.0750 ca         1 S6R      -0.074300
     11 C05         97.0520   114.9800   119.1860 ca         1 S6R      -0.062000
     12 C06         96.8250   116.1640   119.8820 ca         1 S6R      -0.173000
     13 C07         95.5900   116.3830   120.4830 ca         1 S6R       0.113100
     14 C09         96.1730   118.5600   121.2660 c3         1 S6R       0.212900
     15 C11         95.2090   119.5820   119.1720 ca         1 S6R      -0.090500
     16 C12         95.3490   120.2980   117.9920 ca         1 S6R      -0.113500
     17 C14         97.7120   120.4820   118.3780 ca         1 S6R      -0.113500
     18 C16         94.6010   115.4040   120.3780 ca         1 S6R      -0.173000
     19 C19         95.0030   110.2520   117.1790 c6         1 S6R      -0.016600
     20 C23         94.1290   109.3770   116.2630 c6         1 S6R      -0.085400
     21 C27         95.4960   106.2250   114.1350 ca         1 S6R      -0.122600
     22 C29         94.8260   104.8580   112.2680 ca         1 S6R      -0.107500
     23 C30         93.7090   104.4020   112.9690 cp         1 S6R      -0.042000
     24 C31         92.7610   103.4510   112.3540 cp         1 S6R      -0.013000
     25 C32         91.3910   103.5480   112.5970 ca         1 S6R      -0.099000
     26 C33         90.5050   102.6540   112.0170 ca         1 S6R      -0.104000
     27 C34         90.9620   101.6470   111.1800 ca         1 S6R      -0.109000
     28 C35         92.3240   101.5550   110.9400 ca         1 S6R       0.118000
     29 C37         93.2240   102.4380   111.5140 ca         1 S6R      -0.096000
     30 C38         93.5080   104.8690   114.2690 ca         1 S6R      -0.107500
     31 C39         94.3850   105.7750   114.8420 ca         1 S6R      -0.077000
     32 C41         96.9950   109.0980   116.1040 c6         1 S6R       0.091500
     33 C42         96.3210   109.5040   117.4070 c6         1 S6R      -0.085400
     34 N18         95.2260   111.5120   116.4780 ns         1 S6R      -0.474900
     35 N25         96.0990   108.2720   115.3110 n          1 S6R      -0.391800
     36 O01         95.5240   113.7260   116.3320 o          1 S6R      -0.652100
     37 O08         95.2590   117.4850   121.1950 os         1 S6R      -0.350100
     38 O21         93.2930   111.3530   118.4240 o          1 S6R      -0.706500
     39 O22         94.4220   109.7200   119.4450 o          1 S6R      -0.706500
     40 O40         97.6820   106.7260   114.8270 o          1 S6R      -0.618100
     41 CL36        92.9200   100.3010   109.9020 cl         1 S6R      -0.216000
     42 H1          96.7070   121.3100   116.6710 ha         1 S6R       0.106000
     43 H2          98.4440   119.5380   120.1580 ha         1 S6R       0.116000
     44 H3          94.0670   113.4850   119.6150 ha         1 S6R       0.131500
     45 H4          95.0590   109.7860   114.3430 h1         1 S6R       0.042450
     46 H5          94.1980   108.2720   114.4220 h1         1 S6R       0.042450
     47 H9          98.0210   114.8290   118.7260 ha         1 S6R       0.131500
     48 H10         97.6230   116.8910   119.9390 ha         1 S6R       0.110000
     49 H11         97.1520   118.2300   121.6310 h1         1 S6R       0.050700
     50 H12         95.7610   119.2240   122.0280 h1         1 S6R       0.050700
     51 H13         94.2270   119.2390   119.4730 ha         1 S6R       0.116000
     52 H14         94.4780   120.5050   117.3830 ha         1 S6R       0.108000
     53 H15         98.6910   120.8250   118.0720 ha         1 S6R       0.108000
     54 H16         93.6380   115.5680   120.8460 ha         1 S6R       0.110000
     55 H17         93.2180   109.9160   115.9910 hc         1 S6R       0.061200
     56 H18         93.8230   108.4910   116.8240 hc         1 S6R       0.061200
     57 H19         94.9990   104.5310   111.2510 ha         1 S6R       0.113500
     58 H20         91.0080   104.3400   113.2280 ha         1 S6R       0.124000
     59 H21         89.4450   102.7460   112.2090 ha         1 S6R       0.116000
     60 H22         90.2720   100.9510   110.7230 ha         1 S6R       0.124000
     61 H23         94.2830   102.3240   111.3230 ha         1 S6R       0.132000
     62 H24         92.6690   104.5090   114.8510 ha         1 S6R       0.113500
     63 H25         94.2080   106.1200   115.8530 ha         1 S6R       0.130500
     64 H26         97.9050   108.5400   116.3130 h1         1 S6R       0.042450
     65 H27         97.2820   109.9830   115.5260 h1         1 S6R       0.042450
     66 H28         96.1190   108.6080   117.9940 hc         1 S6R       0.061200
     67 H29         97.0240   110.1060   117.9860 hc         1 S6R       0.061200
     68 H30         94.7740   111.6150   115.5800 hn         1 S6R       0.289500
     69 C03         96.3330   112.7180   118.3320 c3         1 S6R      -0.103100
     70 H6          96.5810   106.0790   112.2860 ha         1 S6R       0.130500
     71 H7          96.0730   111.8660   118.9570 hc         1 S6R       0.070200
     72 H8          97.4030   112.6160   118.1250 hc         1 S6R       0.070200
@<TRIPOS>BOND
     1     1     3 ar  
     2     1    14 1   
     3     1    15 ar  
     4     2    16 ar  
     5     2    17 ar  
     6     2    42 1   
     7     3    17 ar  
     8     3    43 1   
     9     4    10 ar  
    10     4    18 ar  
    11     4    44 1   
    12     5    19 1   
    13     5    38 1   
    14     5    39 1   
    15     6    20 1   
    16     6    35 1   
    17     6    45 1   
    18     6    46 1   
    19     7    21 1   
    20     7    35 1   
    21     7    40 2   
    22     8    21 ar  
    23     8    22 ar  
    24     8    70 1   
    25     9    34 1   
    26     9    36 2   
    27     9    69 1   
    28    10    11 ar  
    29    10    69 1   
    30    11    12 ar  
    31    11    47 1   
    32    12    13 ar  
    33    12    48 1   
    34    13    18 ar  
    35    13    37 1   
    36    14    37 1   
    37    14    49 1   
    38    14    50 1   
    39    15    16 ar  
    40    15    51 1   
    41    16    52 1   
    42    17    53 1   
    43    18    54 1   
    44    19    20 1   
    45    19    33 1   
    46    19    34 1   
    47    20    55 1   
    48    20    56 1   
    49    21    31 ar  
    50    22    23 ar  
    51    22    57 1   
    52    23    24 1   
    53    23    30 ar  
    54    24    25 ar  
    55    24    29 ar  
    56    25    26 ar  
    57    25    58 1   
    58    26    27 ar  
    59    26    59 1   
    60    27    28 ar  
    61    27    60 1   
    62    28    29 ar  
    63    28    41 1   
    64    29    61 1   
    65    30    31 ar  
    66    30    62 1   
    67    31    63 1   
    68    32    33 1   
    69    32    35 1   
    70    32    64 1   
    71    32    65 1   
    72    33    66 1   
    73    33    67 1   
    74    34    68 1   
    75    69    71 1   
    76    69    72 1   
@<TRIPOS>SUBSTRUCTURE
     1 S6R         1 TEMP              0 ****  ****    0 ROOT
