@<TRIPOS>MOLECULE
S6R
   72    76     1     0     0
SMALL
No Charge or Current Charge


@<TRIPOS>ATOM
      1 C10         96.1460   119.3170   119.4520 ca         1 S6R      -0.116300
      2 C13         95.5430   120.1170   116.8130 ca         1 S6R      -0.108000
      3 C15         97.1780   119.6930   118.5670 ca         1 S6R      -0.090500
      4 C17         95.5110   114.1030   120.3090 ca         1 S6R      -0.062000
      5 C20         93.9820   110.9130   118.8800 c          1 S6R       0.711000
      6 C24         94.7390   108.8780   115.5850 c6         1 S6R       0.091500
      7 C26         96.3450   107.0180   115.1320 c          1 S6R       0.612700
      8 C28         95.8420   105.6710   113.0490 ca         1 S6R      -0.077000
      9 C02         96.4350   112.4480   117.3890 c          1 S6R       0.619100
     10 C04         96.6240   113.9180   119.4670 ca         1 S6R      -0.074300
     11 C05         97.4780   115.0080   119.2080 ca         1 S6R      -0.062000
     12 C06         97.2210   116.2680   119.7760 ca         1 S6R      -0.173000
     13 C07         96.0990   116.4510   120.6120 ca         1 S6R       0.113100
     14 C09         96.4740   118.8900   120.8840 c3         1 S6R       0.212900
     15 C11         94.8090   119.3540   119.0060 ca         1 S6R      -0.090500
     16 C12         94.5090   119.7510   117.6910 ca         1 S6R      -0.113500
     17 C14         96.8770   120.0890   117.2530 ca         1 S6R      -0.113500
     18 C16         95.2540   115.3620   120.8770 ca         1 S6R      -0.173000
     19 C19         94.9180   110.3380   117.7370 c6         1 S6R      -0.016600
     20 C23         93.9830   109.5940   116.7340 c6         1 S6R      -0.085400
     21 C27         95.4020   106.1840   114.2870 ca         1 S6R      -0.122600
     22 C29         94.9920   104.8780   112.2590 ca         1 S6R      -0.107500
     23 C30         93.6800   104.5580   112.6840 cp         1 S6R      -0.042000
     24 C31         92.7750   103.7130   111.8410 cp         1 S6R      -0.013000
     25 C32         91.3750   103.9440   111.8090 ca         1 S6R      -0.099000
     26 C33         90.5240   103.1520   111.0180 ca         1 S6R      -0.104000
     27 C34         91.0560   102.1100   110.2420 ca         1 S6R      -0.109000
     28 C35         92.4370   101.8630   110.2590 ca         1 S6R       0.118000
     29 C37         93.2870   102.6540   111.0480 ca         1 S6R      -0.096000
     30 C38         93.2570   105.0570   113.9400 ca         1 S6R      -0.107500
     31 C39         94.1040   105.8500   114.7330 ca         1 S6R      -0.077000
     32 C41         96.6710   108.5270   117.0960 c6         1 S6R       0.091500
     33 C42         95.8940   109.2220   118.2400 c6         1 S6R      -0.085400
     34 N18         95.6510   111.3900   116.9630 ns         1 S6R      -0.474900
     35 N25         95.7890   107.9320   116.0580 n          1 S6R      -0.391800
     36 O01         96.8200   113.2460   116.5450 o          1 S6R      -0.652100
     37 O08         95.7920   117.6600   121.2050 os         1 S6R      -0.350100
     38 O21         93.3050   111.8920   118.5950 o          1 S6R      -0.706500
     39 O22         94.2630   110.6510   120.0420 o          1 S6R      -0.706500
     40 O40         97.5560   106.8320   115.0810 o          1 S6R      -0.618100
     41 Cl36        93.1050   100.5540   109.2920 cl         1 S6R      -0.216000
     42 H1          95.3110   120.4240   115.7960 ha         1 S6R       0.106000
     43 H2          98.2150   119.6770   118.8970 ha         1 S6R       0.116000
     44 H3          94.8450   113.2720   120.5270 ha         1 S6R       0.131500
     45 H4          95.2200   109.6310   114.9440 h1         1 S6R       0.042450
     46 H5          94.0040   108.3660   114.9520 h1         1 S6R       0.042450
     47 H9          98.3440   114.8780   118.5620 ha         1 S6R       0.131500
     48 H10         97.9030   117.0830   119.5590 ha         1 S6R       0.110000
     49 H11         97.5580   118.7820   121.0180 h1         1 S6R       0.050700
     50 H12         96.1430   119.6850   121.5650 h1         1 S6R       0.050700
     51 H13         94.0010   119.0720   119.6780 ha         1 S6R       0.116000
     52 H14         93.4760   119.7740   117.3530 ha         1 S6R       0.108000
     53 H15         97.6780   120.3750   116.5750 ha         1 S6R       0.108000
     54 H16         94.3920   115.4950   121.5260 ha         1 S6R       0.110000
     55 H17         93.2630   110.3000   116.2990 hc         1 S6R       0.061200
     56 H18         93.3800   108.8500   117.2750 hc         1 S6R       0.061200
     57 H19         95.3560   104.5200   111.2990 ha         1 S6R       0.113500
     58 H20         90.9460   104.7550   112.3920 ha         1 S6R       0.124000
     59 H21         89.4540   103.3490   111.0050 ha         1 S6R       0.116000
     60 H22         90.4010   101.4950   109.6300 ha         1 S6R       0.124000
     61 H23         94.3510   102.4340   111.0550 ha         1 S6R       0.132000
     62 H24         92.2670   104.8110   114.3160 ha         1 S6R       0.113500
     63 H25         93.7500   106.1880   115.7050 ha         1 S6R       0.130500
     64 H26         97.2990   107.7370   117.5320 h1         1 S6R       0.042450
     65 H27         97.3470   109.2510   116.6180 h1         1 S6R       0.042450
     66 H28         95.3270   108.4570   118.7890 hc         1 S6R       0.061200
     67 H29         96.6170   109.6240   118.9590 hc         1 S6R       0.061200
     68 H30         95.4580   111.4240   115.9710 hn         1 S6R       0.289500
     69 C03         96.9180   112.5500   118.8510 c3         1 S6R      -0.103100
     70 H6          96.8430   105.8990   112.6900 ha         1 S6R       0.130500
     71 H7          96.4970   111.7610   119.4710 hc         1 S6R       0.070200
     72 H8          98.0010   112.3890   118.8410 hc         1 S6R       0.070200
@<TRIPOS>BOND
     1     1     3 ar  
     2     1    14 1   
     3     1    15 ar  
     4     2    16 ar  
     5     2    17 ar  
     6     2    42 1   
     7     3    17 ar  
     8     3    43 1   
     9     4    10 ar  
    10     4    18 ar  
    11     4    44 1   
    12     5    19 1   
    13     5    38 1   
    14     5    39 1   
    15     6    20 1   
    16     6    35 1   
    17     6    45 1   
    18     6    46 1   
    19     7    21 1   
    20     7    35 1   
    21     7    40 2   
    22     8    21 ar  
    23     8    22 ar  
    24     8    70 1   
    25     9    34 1   
    26     9    36 2   
    27     9    69 1   
    28    10    11 ar  
    29    10    69 1   
    30    11    12 ar  
    31    11    47 1   
    32    12    13 ar  
    33    12    48 1   
    34    13    18 ar  
    35    13    37 1   
    36    14    37 1   
    37    14    49 1   
    38    14    50 1   
    39    15    16 ar  
    40    15    51 1   
    41    16    52 1   
    42    17    53 1   
    43    18    54 1   
    44    19    20 1   
    45    19    33 1   
    46    19    34 1   
    47    20    55 1   
    48    20    56 1   
    49    21    31 ar  
    50    22    23 ar  
    51    22    57 1   
    52    23    24 1   
    53    23    30 ar  
    54    24    25 ar  
    55    24    29 ar  
    56    25    26 ar  
    57    25    58 1   
    58    26    27 ar  
    59    26    59 1   
    60    27    28 ar  
    61    27    60 1   
    62    28    29 ar  
    63    28    41 1   
    64    29    61 1   
    65    30    31 ar  
    66    30    62 1   
    67    31    63 1   
    68    32    33 1   
    69    32    35 1   
    70    32    64 1   
    71    32    65 1   
    72    33    66 1   
    73    33    67 1   
    74    34    68 1   
    75    69    71 1   
    76    69    72 1   
@<TRIPOS>SUBSTRUCTURE
     1 S6R         1 TEMP              0 ****  ****    0 ROOT
