@<TRIPOS>MOLECULE
S6T
   47    47     1     0     0
SMALL
No Charge or Current Charge


@<TRIPOS>ATOM
      1 C1          10.4310    78.1770    -2.3400 c3         1 S6T      -0.080400
      2 O1          11.8250    71.8110    -0.9180 o          1 S6T      -0.593100
      3 C2          10.4880    77.1920    -1.1590 c3         1 S6T       0.154600
      4 C            9.2230    79.1300    -2.2690 c3         1 S6T      -0.088100
      5 O           11.6190    76.3260    -1.3700 os         1 S6T      -0.465000
      6 C7           9.5340    74.1410    -2.5000 ca         1 S6T      -0.056000
      7 N           10.4310    73.5460    -1.5410 n          1 S6T      -0.229400
      8 C10         11.9140    73.8410    -5.3360 c3         1 S6T      -0.087600
      9 C11          9.1390    75.1370    -4.6990 ca         1 S6T      -0.115000
     10 C12          7.7600    75.1420    -4.4580 ca         1 S6T      -0.100000
     11 C13          7.2590    74.6150    -3.2630 ca         1 S6T      -0.115000
     12 C14          8.1280    74.1010    -2.2810 ca         1 S6T      -0.059800
     13 C15          7.4960    73.4990    -1.0210 c3         1 S6T      -0.037100
     14 C16          6.8420    74.5640    -0.1160 c3         1 S6T      -0.087600
     15 C3          11.8640    75.3240    -0.3560 c3         1 S6T       0.144600
     16 C4          10.7020    74.2970    -0.2820 c3         1 S6T       0.064000
     17 C5          10.9790    72.2450    -1.6960 c          1 S6T       0.600100
     18 C6          10.4540    71.3590    -2.8440 c3         1 S6T       0.049600
     19 C8          10.0360    74.6160    -3.7470 ca         1 S6T      -0.059800
     20 C9          11.5360    74.6540    -4.0800 c3         1 S6T      -0.037100
     21 Cl           9.0540    70.2990    -2.3400 cl         1 S6T      -0.264000
     22 H1          10.3810    77.6120    -3.2790 hc         1 S6T       0.051200
     23 H2          11.3560    78.7670    -2.3660 hc         1 S6T       0.051200
     24 H3          10.5920    77.7480    -0.2170 h1         1 S6T       0.022200
     25 H4           9.5500    76.6250    -1.1290 h1         1 S6T       0.022200
     26 H5           9.2220    79.8120    -3.1270 hc         1 S6T       0.034033
     27 H6           8.2830    78.5640    -2.2790 hc         1 S6T       0.034033
     28 H7           9.2560    79.7310    -1.3520 hc         1 S6T       0.034033
     29 H8          12.9940    73.9010    -5.5150 hc         1 S6T       0.034033
     30 H9          11.6490    72.7840    -5.2160 hc         1 S6T       0.034033
     31 H10         11.4030    74.2250    -6.2270 hc         1 S6T       0.034033
     32 H11          9.5120    75.5430    -5.6360 ha         1 S6T       0.116500
     33 H12          7.0780    75.5420    -5.2050 ha         1 S6T       0.116000
     34 H13          6.1840    74.5980    -3.1000 ha         1 S6T       0.116500
     35 H14          6.7260    72.7760    -1.3150 hc         1 S6T       0.058450
     36 H15          8.2160    72.9250    -0.4290 hc         1 S6T       0.058450
     37 H16          6.4290    74.0960     0.7860 hc         1 S6T       0.034033
     38 H17          7.5720    75.3200     0.1920 hc         1 S6T       0.034033
     39 H18          6.0240    75.0720    -0.6400 hc         1 S6T       0.034033
     40 H19         12.7940    74.7850    -0.5800 h1         1 S6T       0.055200
     41 H20         11.9880    75.7960     0.6280 h1         1 S6T       0.055200
     42 H21          9.7900    74.8180     0.0250 h1         1 S6T       0.067200
     43 H22         10.9220    73.5890     0.5260 h1         1 S6T       0.067200
     44 H23         11.2690    70.7080    -3.1790 h1         1 S6T       0.090200
     45 H24         10.1220    71.9710    -3.6870 h1         1 S6T       0.090200
     46 H25         12.1540    74.3030    -3.2480 hc         1 S6T       0.058450
     47 H26         11.8380    75.6950    -4.2430 hc         1 S6T       0.058450
@<TRIPOS>BOND
     1     1     3 1   
     2     1     4 1   
     3     1    22 1   
     4     1    23 1   
     5     2    17 2   
     6     3     5 1   
     7     3    24 1   
     8     3    25 1   
     9     4    26 1   
    10     4    27 1   
    11     4    28 1   
    12     5    15 1   
    13     6     7 1   
    14     6    12 ar  
    15     6    19 ar  
    16     7    16 1   
    17     7    17 1   
    18     8    20 1   
    19     8    29 1   
    20     8    30 1   
    21     8    31 1   
    22     9    10 ar  
    23     9    19 ar  
    24     9    32 1   
    25    10    11 ar  
    26    10    33 1   
    27    11    12 ar  
    28    11    34 1   
    29    12    13 1   
    30    13    14 1   
    31    13    35 1   
    32    13    36 1   
    33    14    37 1   
    34    14    38 1   
    35    14    39 1   
    36    15    16 1   
    37    15    40 1   
    38    15    41 1   
    39    16    42 1   
    40    16    43 1   
    41    17    18 1   
    42    18    21 1   
    43    18    44 1   
    44    18    45 1   
    45    19    20 1   
    46    20    46 1   
    47    20    47 1   
@<TRIPOS>SUBSTRUCTURE
     1 S6T         1 TEMP              0 ****  ****    0 ROOT
