@<TRIPOS>MOLECULE
S6T
   47    47     1     0     0
SMALL
abcg2


@<TRIPOS>ATOM
      1 C1          10.2760    78.2210    -2.3170 c3         1 S6T      -0.080400
      2 O1          11.7280    71.7900    -0.8180 o          1 S6T      -0.593100
      3 C2          10.4310    77.2040    -1.2040 c3         1 S6T       0.154600
      4 C            9.0960    79.1570    -2.0670 c3         1 S6T      -0.088100
      5 O           11.5180    76.3420    -1.5180 os         1 S6T      -0.465000
      6 C7           9.5520    74.0550    -2.5670 ca         1 S6T      -0.056000
      7 N           10.4190    73.4930    -1.5630 n          1 S6T      -0.229400
      8 C10         11.9310    73.7100    -5.3070 c3         1 S6T      -0.087600
      9 C11          9.2430    75.1500    -4.6800 ca         1 S6T      -0.115000
     10 C12          7.8760    75.2110    -4.4510 ca         1 S6T      -0.100000
     11 C13          7.3480    74.6840    -3.2830 ca         1 S6T      -0.115000
     12 C14          8.1720    74.0990    -2.3210 ca         1 S6T      -0.059800
     13 C15          7.5410    73.5390    -1.0680 c3         1 S6T      -0.037100
     14 C16          6.9180    74.6160    -0.1710 c3         1 S6T      -0.087600
     15 C3          11.7950    75.3480    -0.5460 c3         1 S6T       0.144600
     16 C4          10.7020    74.3000    -0.3690 c3         1 S6T       0.064000
     17 C5          10.9390    72.2460    -1.6440 c          1 S6T       0.600100
     18 C6          10.4770    71.3710    -2.7970 c3         1 S6T       0.049600
     19 C8          10.1060    74.5720    -3.7500 ca         1 S6T      -0.059800
     20 C9          11.5840    74.5320    -4.0590 c3         1 S6T      -0.037100
     21 CL           9.0530    70.3940    -2.2470 cl         1 S6T      -0.264000
     22 H1          10.1340    77.6840    -3.2580 hc         1 S6T       0.051200
     23 H2          11.2020    78.7960    -2.4100 hc         1 S6T       0.051200
     24 H3          10.6190    77.7010    -0.2420 h1         1 S6T       0.022200
     25 H4           9.5010    76.6330    -1.1060 h1         1 S6T       0.022200
     26 H5           8.9900    79.8770    -2.8800 hc         1 S6T       0.034033
     27 H6           8.1610    78.5970    -1.9920 hc         1 S6T       0.034033
     28 H7           9.2260    79.7170    -1.1380 hc         1 S6T       0.034033
     29 H8          13.0060    73.7410    -5.4900 hc         1 S6T       0.034033
     30 H9          11.6400    72.6650    -5.1960 hc         1 S6T       0.034033
     31 H10         11.4280    74.1020    -6.1930 hc         1 S6T       0.034033
     32 H11          9.6540    75.5640    -5.5920 ha         1 S6T       0.116500
     33 H12          7.2230    75.6660    -5.1860 ha         1 S6T       0.116000
     34 H13          6.2790    74.7190    -3.1080 ha         1 S6T       0.116500
     35 H14          6.7600    72.8350    -1.3670 hc         1 S6T       0.058450
     36 H15          8.2690    72.9630    -0.5010 hc         1 S6T       0.058450
     37 H16          6.4640    74.1610     0.7110 hc         1 S6T       0.034033
     38 H17          7.6660    75.3360     0.1660 hc         1 S6T       0.034033
     39 H18          6.1420    75.1690    -0.7040 hc         1 S6T       0.034033
     40 H19         12.7200    74.8680    -0.8650 h1         1 S6T       0.055200
     41 H20         11.9670    75.8130     0.4340 h1         1 S6T       0.055200
     42 H21          9.7740    74.7720    -0.0570 h1         1 S6T       0.067200
     43 H22         11.0120    73.6190     0.4210 h1         1 S6T       0.067200
     44 H23         11.2640    70.6680    -3.0470 h1         1 S6T       0.090200
     45 H24         10.1470    71.9160    -3.6710 h1         1 S6T       0.090200
     46 H25         12.1390    74.1480    -3.2070 hc         1 S6T       0.058450
     47 H26         11.9250    75.5590    -4.2060 hc         1 S6T       0.058450
@<TRIPOS>BOND
     1     1     3 1   
     2     1     4 1   
     3     1    22 1   
     4     1    23 1   
     5     2    17 2   
     6     3     5 1   
     7     3    24 1   
     8     3    25 1   
     9     4    26 1   
    10     4    27 1   
    11     4    28 1   
    12     5    15 1   
    13     6     7 1   
    14     6    12 ar  
    15     6    19 ar  
    16     7    16 1   
    17     7    17 1   
    18     8    20 1   
    19     8    29 1   
    20     8    30 1   
    21     8    31 1   
    22     9    10 ar  
    23     9    19 ar  
    24     9    32 1   
    25    10    11 ar  
    26    10    33 1   
    27    11    12 ar  
    28    11    34 1   
    29    12    13 1   
    30    13    14 1   
    31    13    35 1   
    32    13    36 1   
    33    14    37 1   
    34    14    38 1   
    35    14    39 1   
    36    15    16 1   
    37    15    40 1   
    38    15    41 1   
    39    16    42 1   
    40    16    43 1   
    41    17    18 1   
    42    18    21 1   
    43    18    44 1   
    44    18    45 1   
    45    19    20 1   
    46    20    46 1   
    47    20    47 1   
@<TRIPOS>SUBSTRUCTURE
     1 S6T         1 TEMP              0 ****  ****    0 ROOT
