@<TRIPOS>MOLECULE
S6U
   32    34     1     0     0
SMALL
No Charge or Current Charge


@<TRIPOS>ATOM
      1 C18        -48.6230   -29.0140     5.3930 cc         1 S6U      -0.147100
      2 C16        -46.4590   -28.9320     6.2070 ca         1 S6U       0.119500
      3 C14        -44.1780   -28.9220     6.3240 ca         1 S6U       0.127900
      4 C12        -45.1040   -29.1090     4.2040 ca         1 S6U       0.119500
      5 C10        -44.8690   -32.5320     2.0290 c          1 S6U       0.693100
      6 C20        -46.3660   -29.0540     4.8400 ca         1 S6U      -0.142800
      7 C19        -47.7230   -29.1040     4.3460 cd         1 S6U      -0.204200
      8 C02        -44.9330   -29.2520     2.7010 c          1 S6U       0.510600
      9 C04        -43.2940   -29.6110     0.9250 c3         1 S6U       0.135600
     10 C05        -43.2520   -31.1450     0.7020 c3         1 S6U       0.103000
     11 C07        -45.6130   -31.8780    -0.1370 c5         1 S6U       0.069000
     12 C08        -46.7600   -32.4780     0.7240 c5         1 S6U       0.142600
     13 N06        -44.5500   -31.8390     0.8680 n          1 S6U      -0.454800
     14 N13        -43.9940   -29.0420     4.9850 nb         1 S6U      -0.146000
     15 N15        -45.3610   -28.8630     6.9810 nb         1 S6U      -0.173000
     16 N17        -47.8060   -28.9070     6.5390 na         1 S6U      -0.331400
     17 O01        -45.8700   -29.2440     1.9110 o          1 S6U      -0.496000
     18 O03        -43.6140   -29.3290     2.3060 os         1 S6U      -0.400100
     19 O09        -46.1250   -33.0390     1.9020 os         1 S6U      -0.421100
     20 H181       -49.7120   -29.0160     5.4160 h4         1 S6U       0.221000
     21 H141       -43.2790   -28.8680     6.9350 h5         1 S6U       0.058100
     22 H191       -48.0140   -29.2000     3.3020 ha         1 S6U       0.227000
     23 H042       -42.2990   -29.2120     0.6910 h1         1 S6U       0.070200
     24 H041       -44.0040   -29.1400     0.2320 h1         1 S6U       0.070200
     25 H052       -42.8940   -31.3330    -0.3190 h1         1 S6U       0.071700
     26 H051       -42.5090   -31.5810     1.3820 h1         1 S6U       0.071700
     27 H072       -45.8630   -30.8810    -0.5240 h1         1 S6U       0.062700
     28 H071       -45.3470   -32.5340    -0.9770 h1         1 S6U       0.062700
     29 H082       -47.4520   -31.6890     1.0470 h1         1 S6U       0.070700
     30 H081       -47.3320   -33.2520     0.1960 h1         1 S6U       0.070700
     31 H171       -48.1490   -28.8220     7.4920 hn         1 S6U       0.368000
     32 O11        -44.1470   -32.6830     3.0020 o          1 S6U      -0.527000
@<TRIPOS>BOND
     1     1     7 2   
     2     1    16 1   
     3     1    20 1   
     4     2     6 ar  
     5     2    15 ar  
     6     2    16 1   
     7     3    14 ar  
     8     3    15 ar  
     9     3    21 1   
    10     4     6 ar  
    11     4     8 1   
    12     4    14 ar  
    13     5    13 1   
    14     5    19 1   
    15     5    32 2   
    16     6     7 1   
    17     7    22 1   
    18     8    17 2   
    19     8    18 1   
    20     9    10 1   
    21     9    18 1   
    22     9    23 1   
    23     9    24 1   
    24    10    13 1   
    25    10    25 1   
    26    10    26 1   
    27    11    12 1   
    28    11    13 1   
    29    11    27 1   
    30    11    28 1   
    31    12    19 1   
    32    12    29 1   
    33    12    30 1   
    34    16    31 1   
@<TRIPOS>SUBSTRUCTURE
     1 S6U         1 TEMP              0 ****  ****    0 ROOT
