@<TRIPOS>MOLECULE
S6U
   32    34     1     0     0
SMALL
abcg2


@<TRIPOS>ATOM
      1 C18        -48.5760   -28.8680     5.2590 cc         1 S6U      -0.147100
      2 C16        -46.4980   -29.0500     6.0460 ca         1 S6U       0.119500
      3 C14        -44.2830   -29.2410     6.2200 ca         1 S6U       0.127900
      4 C12        -45.1450   -29.1330     4.0940 ca         1 S6U       0.119500
      5 C10        -44.6130   -32.6030     2.0510 c          1 S6U       0.693100
      6 C20        -46.4340   -29.0280     4.6170 ca         1 S6U      -0.142800
      7 C19        -47.7790   -28.9120     4.1470 cd         1 S6U      -0.204200
      8 C02        -44.9350   -29.1470     2.6120 c          1 S6U       0.510600
      9 C04        -43.3600   -29.5890     0.8810 c3         1 S6U       0.135600
     10 C05        -43.2550   -31.0910     0.6570 c3         1 S6U       0.103000
     11 C07        -45.6530   -31.8010     0.1260 c5         1 S6U       0.069000
     12 C08        -46.6730   -32.4740     1.0490 c5         1 S6U       0.142600
     13 N06        -44.4800   -31.7820     0.9850 n          1 S6U      -0.454800
     14 N13        -44.0840   -29.2390     4.9000 nb         1 S6U      -0.146000
     15 N15        -45.4550   -29.1520     6.8540 nb         1 S6U      -0.173000
     16 N17        -47.8070   -28.9500     6.4020 na         1 S6U      -0.331400
     17 O01        -45.8450   -28.9970     1.8260 o          1 S6U      -0.496000
     18 O03        -43.6590   -29.3450     2.2730 os         1 S6U      -0.400100
     19 O09        -45.8710   -33.1210     2.0720 os         1 S6U      -0.421100
     20 H181       -49.6480   -28.7840     5.3340 h4         1 S6U       0.221000
     21 H141       -43.4010   -29.3250     6.8440 h5         1 S6U       0.058100
     22 H191       -48.1090   -28.8680     3.1250 ha         1 S6U       0.227000
     23 H042       -42.4000   -29.1140     0.6920 h1         1 S6U       0.070200
     24 H041       -44.1250   -29.1340     0.2560 h1         1 S6U       0.070200
     25 H052       -42.9950   -31.2720    -0.3900 h1         1 S6U       0.071700
     26 H051       -42.4650   -31.5030     1.2840 h1         1 S6U       0.071700
     27 H072       -45.9610   -30.7940    -0.1480 h1         1 S6U       0.062700
     28 H071       -45.4570   -32.3780    -0.7810 h1         1 S6U       0.062700
     29 H082       -47.3190   -31.7490     1.5410 h1         1 S6U       0.070700
     30 H081       -47.2700   -33.2360     0.5550 h1         1 S6U       0.070700
     31 H171       -48.1540   -28.9400     7.3480 hn         1 S6U       0.368000
     32 O11        -43.7840   -32.8850     2.8950 o          1 S6U      -0.527000
@<TRIPOS>BOND
     1     1     7 2   
     2     1    16 1   
     3     1    20 1   
     4     2     6 ar  
     5     2    15 ar  
     6     2    16 1   
     7     3    14 ar  
     8     3    15 ar  
     9     3    21 1   
    10     4     6 ar  
    11     4     8 1   
    12     4    14 ar  
    13     5    13 1   
    14     5    19 1   
    15     5    32 2   
    16     6     7 1   
    17     7    22 1   
    18     8    17 2   
    19     8    18 1   
    20     9    10 1   
    21     9    18 1   
    22     9    23 1   
    23     9    24 1   
    24    10    13 1   
    25    10    25 1   
    26    10    26 1   
    27    11    12 1   
    28    11    13 1   
    29    11    27 1   
    30    11    28 1   
    31    12    19 1   
    32    12    29 1   
    33    12    30 1   
    34    16    31 1   
@<TRIPOS>SUBSTRUCTURE
     1 S6U         1 TEMP              0 ****  ****    0 ROOT
