@<TRIPOS>MOLECULE
S6V
   35    36     1     0     0
SMALL
No Charge or Current Charge


@<TRIPOS>ATOM
      1 N1          14.9640    -9.7240    -9.5410 ns         1 S6V      -0.160000
      2 N3          13.8560    -6.2300   -11.9650 n          1 S6V      -0.412800
      3 C4          16.2310   -10.3540    -9.4050 ca         1 S6V      -0.001000
      4 C5          17.1550   -10.4840   -10.4660 ca         1 S6V      -0.152000
      5 C6          18.3950   -11.1120   -10.2570 ca         1 S6V      -0.083500
      6 C7          14.2700    -9.2650   -10.6490 c          1 S6V       0.658100
      7 C8          12.1800    -7.9860   -11.2530 c3         1 S6V       0.081000
      8 C10         14.1510    -6.1340   -13.4090 c5         1 S6V       0.093000
      9 C13         14.9240    -5.8810   -11.1340 c          1 S6V       0.564000
     10 C1          18.7270   -11.6130    -8.9880 ca         1 S6V      -0.140000
     11 C11         15.4570    -5.2790   -13.3990 c5         1 S6V      -0.088400
     12 C12         16.1140    -5.7650   -12.0800 c5         1 S6V      -0.167400
     13 C2          17.8190   -11.4830    -7.9260 ca         1 S6V      -0.083500
     14 C3          16.5790   -10.8540    -8.1350 ca         1 S6V      -0.152000
     15 C9          12.5050    -6.4840   -11.4180 c3         1 S6V       0.075000
     16 N2          13.0810    -8.6610   -10.3060 ns         1 S6V      -0.502900
     17 O1          14.6410    -9.3770   -11.8090 o          1 S6V      -0.634100
     18 O2          14.8290    -5.5410    -9.9630 o          1 S6V      -0.570000
     19 H1          14.4910    -9.5720    -8.6610 hn         1 S6V       0.149000
     20 H2          16.9350   -10.0980   -11.4570 ha         1 S6V       0.124000
     21 H3          19.1010   -11.2090   -11.0800 ha         1 S6V       0.111000
     22 H4          11.1500    -8.0900   -10.8870 h1         1 S6V       0.065200
     23 H5          12.2370    -8.4810   -12.2310 h1         1 S6V       0.065200
     24 H6          13.3430    -5.6490   -13.9730 h1         1 S6V       0.055700
     25 H7          14.3250    -7.1320   -13.8330 h1         1 S6V       0.055700
     26 H8          19.6870   -12.0990    -8.8280 ha         1 S6V       0.114000
     27 H9          16.0820    -5.4460   -14.2830 hc         1 S6V       0.055700
     28 H10         15.2240    -4.2080   -13.3520 hc         1 S6V       0.055700
     29 H11         16.5090    -6.7730   -12.2480 hc         1 S6V       0.079700
     30 H12         16.8990    -5.1200   -11.6730 hc         1 S6V       0.079700
     31 H13         18.0750   -11.8670    -6.9400 ha         1 S6V       0.111000
     32 H14         15.8840   -10.7580    -7.3030 ha         1 S6V       0.124000
     33 H15         12.3930    -5.9830   -10.4480 h1         1 S6V       0.060700
     34 H16         11.7650    -6.0400   -12.0970 h1         1 S6V       0.060700
     35 H17         12.8550    -8.6220    -9.3200 hn         1 S6V       0.310500
@<TRIPOS>BOND
     1     1     3 1   
     2     1     6 1   
     3     1    19 1   
     4     2     8 1   
     5     2     9 1   
     6     2    15 1   
     7     3     4 ar  
     8     3    14 ar  
     9     4     5 ar  
    10     4    20 1   
    11     5    10 ar  
    12     5    21 1   
    13     6    16 1   
    14     6    17 2   
    15     7    15 1   
    16     7    16 1   
    17     7    22 1   
    18     7    23 1   
    19     8    11 1   
    20     8    24 1   
    21     8    25 1   
    22     9    12 1   
    23     9    18 2   
    24    10    13 ar  
    25    10    26 1   
    26    11    12 1   
    27    11    27 1   
    28    11    28 1   
    29    12    29 1   
    30    12    30 1   
    31    13    14 ar  
    32    13    31 1   
    33    14    32 1   
    34    15    33 1   
    35    15    34 1   
    36    16    35 1   
@<TRIPOS>SUBSTRUCTURE
     1 S6V         1 TEMP              0 ****  ****    0 ROOT
