@<TRIPOS>MOLECULE
S6V
   35    36     1     0     0
SMALL
abcg2


@<TRIPOS>ATOM
      1 N1          14.9690    -9.4610    -9.5540 ns         1 S6V      -0.160000
      2 N3          13.8210    -6.2180   -11.8570 n          1 S6V      -0.412800
      3 C4          16.1960   -10.1210    -9.5320 ca         1 S6V      -0.001000
      4 C5          17.0460   -10.2370   -10.6360 ca         1 S6V      -0.152000
      5 C6          18.2630   -10.8920   -10.5030 ca         1 S6V      -0.083500
      6 C7          14.1760    -9.1920   -10.6430 c          1 S6V       0.658100
      7 C8          12.1560    -7.9760   -11.3090 c3         1 S6V       0.081000
      8 C10         14.3090    -6.4120   -13.2100 c5         1 S6V       0.093000
      9 C13         14.7930    -5.9530   -10.9600 c          1 S6V       0.564000
     10 C1          18.6660   -11.4310    -9.2900 ca         1 S6V      -0.140000
     11 C11         15.6960    -5.7690   -13.1710 c5         1 S6V      -0.088400
     12 C12         16.1080    -5.8940   -11.7080 c5         1 S6V      -0.167400
     13 C2          17.8270   -11.3030    -8.1900 ca         1 S6V      -0.083500
     14 C3          16.6070   -10.6600    -8.3090 ca         1 S6V      -0.152000
     15 C9          12.4550    -6.4870   -11.4920 c3         1 S6V       0.075000
     16 N2          12.9980    -8.5980   -10.3180 ns         1 S6V      -0.502900
     17 O1          14.4880    -9.4860   -11.7880 o          1 S6V      -0.634100
     18 O2          14.6350    -5.8030    -9.7590 o          1 S6V      -0.570000
     19 H1          14.5710    -9.2850    -8.6440 hn         1 S6V       0.149000
     20 H2          16.7690    -9.8210   -11.5910 ha         1 S6V       0.124000
     21 H3          18.9060   -10.9740   -11.3700 ha         1 S6V       0.111000
     22 H4          11.1140    -8.0810   -11.0030 h1         1 S6V       0.065200
     23 H5          12.2620    -8.5130   -12.2490 h1         1 S6V       0.065200
     24 H6          13.6440    -5.9320   -13.9280 h1         1 S6V       0.055700
     25 H7          14.3630    -7.4760   -13.4550 h1         1 S6V       0.055700
     26 H8          19.6170   -11.9390    -9.2010 ha         1 S6V       0.114000
     27 H9          16.3900    -6.2490   -13.8580 hc         1 S6V       0.055700
     28 H10         15.6250    -4.7170   -13.4500 hc         1 S6V       0.055700
     29 H11         16.6510    -6.8250   -11.5160 hc         1 S6V       0.079700
     30 H12         16.7330    -5.0780   -11.3470 hc         1 S6V       0.079700
     31 H13         18.1190   -11.7100    -7.2310 ha         1 S6V       0.111000
     32 H14         15.9610   -10.5750    -7.4420 ha         1 S6V       0.124000
     33 H15         12.2320    -5.9520   -10.5680 h1         1 S6V       0.060700
     34 H16         11.7940    -6.0850   -12.2630 h1         1 S6V       0.060700
     35 H17         12.8730    -8.2700    -9.3730 hn         1 S6V       0.310500
@<TRIPOS>BOND
     1     1     3 1   
     2     1     6 1   
     3     1    19 1   
     4     2     8 1   
     5     2     9 1   
     6     2    15 1   
     7     3     4 ar  
     8     3    14 ar  
     9     4     5 ar  
    10     4    20 1   
    11     5    10 ar  
    12     5    21 1   
    13     6    16 1   
    14     6    17 2   
    15     7    15 1   
    16     7    16 1   
    17     7    22 1   
    18     7    23 1   
    19     8    11 1   
    20     8    24 1   
    21     8    25 1   
    22     9    12 1   
    23     9    18 2   
    24    10    13 ar  
    25    10    26 1   
    26    11    12 1   
    27    11    27 1   
    28    11    28 1   
    29    12    29 1   
    30    12    30 1   
    31    13    14 ar  
    32    13    31 1   
    33    14    32 1   
    34    15    33 1   
    35    15    34 1   
    36    16    35 1   
@<TRIPOS>SUBSTRUCTURE
     1 S6V         1 TEMP              0 ****  ****    0 ROOT
