@<TRIPOS>MOLECULE
S6W
   30    31     1     0     0
SMALL
abcg2


@<TRIPOS>ATOM
      1 C10          7.1780    78.2240     0.5130 c3         1 S6W       0.357300
      2 N            8.1240    74.4400    -1.7540 na         1 S6W       0.163000
      3 C            8.7500    73.9200    -5.3570 ca         1 S6W      -0.057500
      4 O            9.4700    77.1940     1.3730 o          1 S6W      -0.492000
      5 C1           9.5630    72.8000    -5.3060 ca         1 S6W      -0.166300
      6 C11         10.1120    72.1980    -6.5690 c3         1 S6W       0.362300
      7 C2           9.9150    72.2150    -4.0960 ca         1 S6W      -0.057500
      8 C3           9.4390    72.7680    -2.9220 ca         1 S6W       0.126500
      9 C4           8.6140    73.8880    -2.9500 ca         1 S6W       0.013800
     10 C5           8.2770    74.4570    -4.1710 ca         1 S6W       0.126500
     11 C6           8.6590    75.4890    -1.0780 cc         1 S6W       0.399000
     12 C7           7.8220    75.6690     0.0190 cd         1 S6W      -0.306500
     13 C8           6.8430    74.6580    -0.1100 cd         1 S6W       0.446000
     14 C9           5.7530    74.4210     0.7710 ch         1 S6W       0.233000
     15 F            5.9200    77.8890     0.2660 f          1 S6W      -0.107667
     16 F1           7.7740    78.5640    -0.6190 f          1 S6W      -0.107667
     17 F2           7.2060    79.2570     1.3400 f          1 S6W      -0.107667
     18 F3          11.4340    72.3750    -6.6490 f          1 S6W      -0.104333
     19 F4           9.8900    70.8810    -6.6150 f          1 S6W      -0.104333
     20 F5           9.5700    72.7340    -7.6610 f          1 S6W      -0.104333
     21 N1           7.0200    73.9280    -1.1790 nc         1 S6W      -0.444800
     22 N2           4.8830    74.2560     1.5050 n1         1 S6W      -0.412000
     23 S            8.0270    76.7900     1.3330 sx         1 S6W       0.338200
     24 CL           7.2590    75.8360    -4.2020 cl         1 S6W      -0.132000
     25 H1           8.4750    74.3800    -6.2950 ha         1 S6W       0.158500
     26 H3          10.5530    71.3430    -4.0530 ha         1 S6W       0.158500
     27 H6          10.1730    76.7820    -0.8320 hn         1 S6W       0.511000
     28 H7          10.3670    75.7310    -2.1550 hn         1 S6W       0.511000
     29 N3           9.7380    76.1570    -1.4930 nv         1 S6W      -1.069000
     30 CL1          9.8650    72.0800    -1.4110 cl         1 S6W      -0.132000
@<TRIPOS>BOND
     1     1    15 1   
     2     1    16 1   
     3     1    17 1   
     4     1    23 1   
     5     2     9 1   
     6     2    11 1   
     7     2    21 1   
     8     3     5 ar  
     9     3    10 ar  
    10     3    25 1   
    11     4    23 2   
    12     5     6 1   
    13     5     7 ar  
    14     6    18 1   
    15     6    19 1   
    16     6    20 1   
    17     7     8 ar  
    18     7    26 1   
    19     8     9 ar  
    20     8    30 1   
    21     9    10 ar  
    22    10    24 1   
    23    11    12 2   
    24    11    29 1   
    25    12    13 1   
    26    12    23 1   
    27    13    14 1   
    28    13    21 2   
    29    14    22 3   
    30    27    29 1   
    31    28    29 1   
@<TRIPOS>SUBSTRUCTURE
     1 S6W         1 TEMP              0 ****  ****    0 ROOT
