@<TRIPOS>MOLECULE
S6W
   30    31     1     0     0
SMALL
No Charge or Current Charge


@<TRIPOS>ATOM
      1 C10          7.2750    78.3330     0.5280 c3         1 S6W       0.357300
      2 N            8.0090    74.4110    -1.7630 na         1 S6W       0.163000
      3 C            8.7130    73.8910    -5.3750 ca         1 S6W      -0.057500
      4 O            9.6370    77.0770     1.3150 o          1 S6W      -0.492000
      5 C1           9.5980    72.7920    -5.3360 ca         1 S6W      -0.166300
      6 C11         10.1840    72.2140    -6.6300 c3         1 S6W       0.362300
      7 C2           9.9550    72.2510    -4.0810 ca         1 S6W      -0.057500
      8 C3           9.4270    72.7860    -2.8930 ca         1 S6W       0.126500
      9 C4           8.5350    73.8770    -2.9390 ca         1 S6W       0.013800
     10 C5           8.1840    74.4280    -4.1890 ca         1 S6W       0.126500
     11 C6           8.5900    75.4560    -1.0470 cc         1 S6W       0.399000
     12 C7           7.7060    75.6570    -0.0350 cd         1 S6W      -0.306500
     13 C8           6.7130    74.6460    -0.1510 cd         1 S6W       0.446000
     14 C9           5.6350    74.4020     0.7550 ch         1 S6W       0.233000
     15 F            5.9480    78.0990     0.4050 f          1 S6W      -0.107667
     16 F1           7.7750    78.6140    -0.6980 f          1 S6W      -0.107667
     17 F2           7.4450    79.4200     1.3160 f          1 S6W      -0.107667
     18 F3          11.3420    72.8270    -6.9600 f          1 S6W      -0.104333
     19 F4          10.4510    70.8910    -6.5270 f          1 S6W      -0.104333
     20 F5           9.3460    72.3570    -7.6820 f          1 S6W      -0.104333
     21 N1           6.8580    73.8860    -1.2300 nc         1 S6W      -0.444800
     22 N2           4.7610    74.2250     1.5140 n1         1 S6W      -0.412000
     23 S            8.1330    76.8400     1.2830 sx         1 S6W       0.338200
     24 Cl           7.0800    75.8030    -4.2990 cl         1 S6W      -0.132000
     25 H1           8.4310    74.3390    -6.3260 ha         1 S6W       0.158500
     26 H3          10.6480    71.4140    -4.0170 ha         1 S6W       0.158500
     27 H6          10.1850    76.6270    -0.6040 hn         1 S6W       0.511000
     28 H7          10.4260    75.6130    -1.9820 hn         1 S6W       0.511000
     29 N3           9.7690    76.0750    -1.3570 nv         1 S6W      -1.069000
     30 Cl1          9.9140    72.0730    -1.3530 cl         1 S6W      -0.132000
@<TRIPOS>BOND
     1     1    15 1   
     2     1    16 1   
     3     1    17 1   
     4     1    23 1   
     5     2     9 1   
     6     2    11 1   
     7     2    21 1   
     8     3     5 ar  
     9     3    10 ar  
    10     3    25 1   
    11     4    23 2   
    12     5     6 1   
    13     5     7 ar  
    14     6    18 1   
    15     6    19 1   
    16     6    20 1   
    17     7     8 ar  
    18     7    26 1   
    19     8     9 ar  
    20     8    30 1   
    21     9    10 ar  
    22    10    24 1   
    23    11    12 2   
    24    11    29 1   
    25    12    13 1   
    26    12    23 1   
    27    13    14 1   
    28    13    21 2   
    29    14    22 3   
    30    27    29 1   
    31    28    29 1   
@<TRIPOS>SUBSTRUCTURE
     1 S6W         1 TEMP              0 ****  ****    0 ROOT
