@<TRIPOS>MOLECULE
S6X
   48    50     1     0     0
SMALL
No Charge or Current Charge


@<TRIPOS>ATOM
      1 C2          19.4660    17.9850    -5.8710 cc         1 S6X      -0.097000
      2 C3          19.5560    19.4050    -5.7920 cc         1 S6X      -0.066000
      3 C5          19.1570    21.6920    -4.7740 ca         1 S6X      -0.124000
      4 C7          17.7700    21.9490    -2.7940 ca         1 S6X      -0.160000
      5 C8          17.5540    20.5640    -2.7530 ca         1 S6X      -0.024000
      6 C9          16.4800    18.7760    -1.2430 c          1 S6X       0.580100
      7 C10         15.4850    18.7040    -0.0330 c3         1 S6X       0.111000
      8 C11         15.9200    17.6890     1.0640 c3         1 S6X      -0.096100
      9 C13         16.2060    20.7520     1.2870 ca         1 S6X       0.124100
     10 C15         18.4810    21.3270     1.9790 ca         1 S6X      -0.072000
     11 C16         17.9880    22.4300     2.6940 ca         1 S6X       0.097000
     12 C19         18.1410    19.7460    -3.7440 ca         1 S6X      -0.129000
     13 Cl          19.0970    23.4760     3.5720 cl         1 S6X      -0.209000
     14 C           20.2150    16.0210    -7.3200 cf         1 S6X       0.694800
     15 O           15.2630    19.9950     0.6090 os         1 S6X      -0.375100
     16 C1          20.1250    17.4250    -6.9440 cd         1 S6X      -0.285900
     17 C12         14.0900    18.3070    -0.5730 c3         1 S6X      -0.096100
     18 C14         17.5970    20.4880     1.2740 ca         1 S6X      -0.146500
     19 C17         16.6110    22.7020     2.7040 ca         1 S6X      -0.072000
     20 C18         15.7270    21.8650     1.9990 ca         1 S6X      -0.146500
     21 C20         20.2860    19.9360    -6.8330 cd         1 S6X      -0.251000
     22 C4          18.9520    20.2910    -4.7690 ca         1 S6X       0.019000
     23 C6          18.5700    22.5110    -3.7970 ca         1 S6X      -0.081000
     24 N2          20.6160    15.6480    -8.4630 n2         1 S6X      -0.845100
     25 O1          17.0230    17.7720    -1.6970 o          1 S6X      -0.587100
     26 S           20.8790    18.6820    -7.9350 ss         1 S6X       0.316000
     27 H2          18.9170    17.3970    -5.1440 ha         1 S6X       0.139000
     28 H3          19.7720    22.1720    -5.5260 ha         1 S6X       0.117000
     29 H5          17.3220    22.5960    -2.0410 ha         1 S6X       0.113000
     30 H8          15.2660    17.7620     1.9410 hc         1 S6X       0.058200
     31 H9          15.8560    16.6620     0.6830 hc         1 S6X       0.058200
     32 H7          16.9520    17.8440     1.3940 hc         1 S6X       0.058200
     33 H14         19.5490    21.1240     1.9680 ha         1 S6X       0.133000
     34 H17         17.9560    18.6810    -3.7300 ha         1 S6X       0.145000
     35 H           19.6760    15.4560    -5.4780 hn         1 S6X       0.467500
     36 H11         13.3530    18.2640     0.2390 hc         1 S6X       0.058200
     37 H12         13.7380    19.0340    -1.3150 hc         1 S6X       0.058200
     38 H10         14.1230    17.3220    -1.0540 hc         1 S6X       0.058200
     39 H13         18.0190    19.6560     0.7240 ha         1 S6X       0.131000
     40 H15         16.2300    23.5580     3.2550 ha         1 S6X       0.133000
     41 H16         14.6610    22.0790     2.0060 ha         1 S6X       0.131000
     42 H18         20.5230    20.9650    -7.0600 h4         1 S6X       0.150000
     43 H4          18.7380    23.5860    -3.8180 ha         1 S6X       0.115000
     44 H6          16.2360    20.7810    -1.1960 hn         1 S6X       0.168000
     45 H19         20.4010    14.6500    -8.5600 hn         1 S6X       0.375400
     46 H1          20.1080    14.1690    -6.5220 hn         1 S6X       0.467500
     47 N1          16.7310    20.0620    -1.7090 ns         1 S6X      -0.138000
     48 N           19.8140    15.1330    -6.4260 nv         1 S6X      -1.076200
@<TRIPOS>BOND
     1     1     2 1   
     2     1    16 2   
     3     1    27 1   
     4     2    21 2   
     5     2    22 1   
     6     3    22 ar  
     7     3    23 ar  
     8     3    28 1   
     9     4     5 ar  
    10     4    23 ar  
    11     4    29 1   
    12     5    12 ar  
    13     5    47 1   
    14     6     7 1   
    15     6    25 2   
    16     6    47 1   
    17     7     8 1   
    18     7    15 1   
    19     7    17 1   
    20     8    30 1   
    21     8    31 1   
    22     8    32 1   
    23     9    15 1   
    24     9    18 ar  
    25     9    20 ar  
    26    10    11 ar  
    27    10    18 ar  
    28    10    33 1   
    29    11    13 1   
    30    11    19 ar  
    31    12    22 ar  
    32    12    34 1   
    33    14    16 1   
    34    14    24 2   
    35    14    48 1   
    36    16    26 1   
    37    17    36 1   
    38    17    37 1   
    39    17    38 1   
    40    18    39 1   
    41    19    20 ar  
    42    19    40 1   
    43    20    41 1   
    44    21    26 1   
    45    21    42 1   
    46    23    43 1   
    47    24    45 1   
    48    35    48 1   
    49    44    47 1   
    50    46    48 1   
@<TRIPOS>SUBSTRUCTURE
     1 S6X         1 TEMP              0 ****  ****    0 ROOT
