@<TRIPOS>MOLECULE
S6X
   48    50     1     0     0
SMALL
abcg2


@<TRIPOS>ATOM
      1 C2          19.4170    18.0720    -5.7200 cc         1 S6X      -0.097000
      2 C3          19.5050    19.4980    -5.7120 cc         1 S6X      -0.066000
      3 C5          18.4080    21.7120    -5.3270 ca         1 S6X      -0.124000
      4 C7          16.9310    22.0480    -3.4500 ca         1 S6X      -0.160000
      5 C8          17.1180    20.7170    -3.0620 ca         1 S6X      -0.024000
      6 C9          16.3610    19.0460    -1.3690 c          1 S6X       0.580100
      7 C10         15.4510    18.9700    -0.1220 c3         1 S6X       0.111000
      8 C11         15.8320    17.8090     0.7860 c3         1 S6X      -0.096100
      9 C13         16.5160    20.6500     1.3310 ca         1 S6X       0.124100
     10 C15         18.8560    20.8160     1.8870 ca         1 S6X      -0.072000
     11 C16         18.5430    21.6970     2.9100 ca         1 S6X       0.097000
     12 C19         17.9600    19.8910    -3.8070 ca         1 S6X      -0.129000
     13 CL          19.8240    22.3510     3.9130 cl         1 S6X      -0.209000
     14 C           20.5800    16.0390    -6.7740 cf         1 S6X       0.694800
     15 O           15.4430    20.2310     0.5900 os         1 S6X      -0.375100
     16 C1          20.3610    17.4700    -6.5070 cd         1 S6X      -0.285900
     17 C12         14.0110    18.8140    -0.6150 c3         1 S6X      -0.096100
     18 C14         17.8420    20.2930     1.0910 ca         1 S6X      -0.146500
     19 C17         17.2270    22.0700     3.1520 ca         1 S6X      -0.072000
     20 C18         16.2180    21.5410     2.3620 ca         1 S6X      -0.146500
     21 C20         20.5370    19.9330    -6.5110 cd         1 S6X      -0.251000
     22 C4          18.6120    20.3820    -4.9430 ca         1 S6X       0.019000
     23 C6          17.5760    22.5330    -4.5770 ca         1 S6X      -0.081000
     24 N2          21.3980    15.7010    -7.7100 n2         1 S6X      -0.845100
     25 O1          16.8930    18.0430    -1.8260 o          1 S6X      -0.587100
     26 S           21.3840    18.6470    -7.2590 ss         1 S6X       0.316000
     27 H2          18.6550    17.5250    -5.1840 ha         1 S6X       0.139000
     28 H3          18.8870    22.0990    -6.2160 ha         1 S6X       0.117000
     29 H5          16.2800    22.6890    -2.8680 ha         1 S6X       0.113000
     30 H8          15.1810    17.8210     1.6610 hc         1 S6X       0.058200
     31 H9          15.6860    16.8710     0.2540 hc         1 S6X       0.058200
     32 H7          16.8670    17.8540     1.1150 hc         1 S6X       0.058200
     33 H14         19.8840    20.5340     1.7030 ha         1 S6X       0.133000
     34 H17         18.1150    18.8760    -3.4860 ha         1 S6X       0.145000
     35 H           19.5000    15.4880    -5.1150 hn         1 S6X       0.467500
     36 H11         13.3450    18.7140     0.2420 hc         1 S6X       0.058200
     37 H12         13.7090    19.6820    -1.2010 hc         1 S6X       0.058200
     38 H10         13.9270    17.9210    -1.2340 hc         1 S6X       0.058200
     39 H13         18.1120    19.6130     0.2980 ha         1 S6X       0.131000
     40 H15         16.9910    22.7580     3.9520 ha         1 S6X       0.133000
     41 H16         15.1850    21.8120     2.5380 ha         1 S6X       0.131000
     42 H18         20.8550    20.9490    -6.6790 h4         1 S6X       0.150000
     43 H4          17.4210    23.5610    -4.8780 ha         1 S6X       0.115000
     44 H6          15.9390    21.0050    -1.4070 hn         1 S6X       0.168000
     45 H19         21.4790    14.6870    -7.7760 hn         1 S6X       0.375400
     46 H1          20.0890    14.1980    -6.0510 hn         1 S6X       0.467500
     47 N1          16.4410    20.2860    -1.9090 ns         1 S6X      -0.138000
     48 N           19.8410    15.1750    -6.0100 nv         1 S6X      -1.076200
@<TRIPOS>BOND
     1     1     2 1   
     2     1    16 2   
     3     1    27 1   
     4     2    21 2   
     5     2    22 1   
     6     3    22 ar  
     7     3    23 ar  
     8     3    28 1   
     9     4     5 ar  
    10     4    23 ar  
    11     4    29 1   
    12     5    12 ar  
    13     5    47 1   
    14     6     7 1   
    15     6    25 2   
    16     6    47 1   
    17     7     8 1   
    18     7    15 1   
    19     7    17 1   
    20     8    30 1   
    21     8    31 1   
    22     8    32 1   
    23     9    15 1   
    24     9    18 ar  
    25     9    20 ar  
    26    10    11 ar  
    27    10    18 ar  
    28    10    33 1   
    29    11    13 1   
    30    11    19 ar  
    31    12    22 ar  
    32    12    34 1   
    33    14    16 1   
    34    14    24 2   
    35    14    48 1   
    36    16    26 1   
    37    17    36 1   
    38    17    37 1   
    39    17    38 1   
    40    18    39 1   
    41    19    20 ar  
    42    19    40 1   
    43    20    41 1   
    44    21    26 1   
    45    21    42 1   
    46    23    43 1   
    47    24    45 1   
    48    35    48 1   
    49    44    47 1   
    50    46    48 1   
@<TRIPOS>SUBSTRUCTURE
     1 S6X         1 TEMP              0 ****  ****    0 ROOT
