@<TRIPOS>MOLECULE
S6Y
   25    25     1     0     0
SMALL
No Charge or Current Charge


@<TRIPOS>ATOM
      1 N1           4.1630     5.5460    14.4060 nc         1 S6Y      -0.718100
      2 C2           6.8690     4.9680    14.3120 cc         1 S6Y       0.032400
      3 C3           6.4420     6.2140    14.7310 cd         1 S6Y      -0.460600
      4 C4           5.0320     6.4780    14.7720 cd         1 S6Y       0.544600
      5 C5           4.4790     7.8110    15.2160 c3         1 S6Y      -0.116700
      6 C7           4.2410     9.5510    17.0750 c3         1 S6Y      -0.085100
      7 C8           3.9900     7.0780    17.6350 c3         1 S6Y      -0.085100
      8 C9           4.5550     4.3040    13.9870 c          1 S6Y       0.671400
      9 O3           3.7520     3.4540    13.6560 o          1 S6Y      -0.601000
     10 N2           5.8870     4.0610    13.9570 ns         1 S6Y      -0.470600
     11 C1           8.3170     4.5310    14.2140 c          1 S6Y       0.707200
     12 O2           9.2020     5.3190    14.5230 o          1 S6Y      -0.690000
     13 O1           8.5560     3.3930    13.8260 o          1 S6Y      -0.690000
     14 C6           4.6900     8.1140    16.7250 c3         1 S6Y      -0.058700
     15 H1           7.1500     6.9810    15.0250 ha         1 S6Y       0.211000
     16 H3           4.9630     8.5990    14.6270 hc         1 S6Y       0.052200
     17 H4           3.4090     7.8790    14.9840 hc         1 S6Y       0.052200
     18 H5           4.4410     9.7740    18.1300 hc         1 S6Y       0.029700
     19 H6           4.7830    10.2860    16.4670 hc         1 S6Y       0.029700
     20 H7           3.1670     9.6810    16.8940 hc         1 S6Y       0.029700
     21 H8           4.1590     7.3150    18.6930 hc         1 S6Y       0.029700
     22 H9           2.9080     7.0670    17.4550 hc         1 S6Y       0.029700
     23 H10          4.3790     6.0690    17.4540 hc         1 S6Y       0.029700
     24 H12          5.7660     8.0560    16.9310 hc         1 S6Y       0.055700
     25 H2           6.1500     3.1330    13.6430 hn         1 S6Y       0.469000
@<TRIPOS>BOND
     1     1     4 2   
     2     1     8 1   
     3     2     3 2   
     4     2    10 1   
     5     2    11 1   
     6     3     4 1   
     7     3    15 1   
     8     4     5 1   
     9     5    14 1   
    10     5    16 1   
    11     5    17 1   
    12     6    14 1   
    13     6    18 1   
    14     6    19 1   
    15     6    20 1   
    16     7    14 1   
    17     7    21 1   
    18     7    22 1   
    19     7    23 1   
    20     8     9 2   
    21     8    10 1   
    22    10    25 1   
    23    11    12 1   
    24    11    13 1   
    25    14    24 1   
@<TRIPOS>SUBSTRUCTURE
     1 S6Y         1 TEMP              0 ****  ****    0 ROOT
