@<TRIPOS>MOLECULE
S6Y
   25    25     1     0     0
SMALL
abcg2


@<TRIPOS>ATOM
      1 N1           4.0990     5.5930    14.3510 nc         1 S6Y      -0.718100
      2 C2           6.8020     5.0050    14.3680 cc         1 S6Y       0.032400
      3 C3           6.3780     6.2360    14.7690 cd         1 S6Y      -0.460600
      4 C4           4.9840     6.4890    14.7470 cd         1 S6Y       0.544600
      5 C5           4.4700     7.8220    15.2060 c3         1 S6Y      -0.116700
      6 C7           4.2330     9.5080    17.0490 c3         1 S6Y      -0.085100
      7 C8           4.1230     7.0490    17.6010 c3         1 S6Y      -0.085100
      8 C9           4.5140     4.3530    13.9340 c          1 S6Y       0.671400
      9 O3           3.7390     3.4770    13.5440 o          1 S6Y      -0.601000
     10 N2           5.8790     4.1060    13.9700 ns         1 S6Y      -0.470600
     11 C1           8.2620     4.5300    14.3270 c          1 S6Y       0.707200
     12 O2           9.1190     5.3510    14.7090 o          1 S6Y      -0.690000
     13 O1           8.4240     3.3590    13.9110 o          1 S6Y      -0.690000
     14 C6           4.7450     8.1120    16.6950 c3         1 S6Y      -0.058700
     15 H1           7.0870     6.9800    15.0910 ha         1 S6Y       0.211000
     16 H3           4.9480     8.6020    14.6060 hc         1 S6Y       0.052200
     17 H4           3.3960     7.8640    15.0190 hc         1 S6Y       0.052200
     18 H5           4.4510     9.7490    18.0920 hc         1 S6Y       0.029700
     19 H6           4.6980    10.2700    16.4190 hc         1 S6Y       0.029700
     20 H7           3.1510     9.5690    16.9080 hc         1 S6Y       0.029700
     21 H8           4.3230     7.2740    18.6500 hc         1 S6Y       0.029700
     22 H9           3.0390     7.0110    17.4630 hc         1 S6Y       0.029700
     23 H10          4.5240     6.0550    17.3890 hc         1 S6Y       0.029700
     24 H12          5.8290     8.0990    16.8460 hc         1 S6Y       0.055700
     25 H2           6.2320     3.2000    13.6760 hn         1 S6Y       0.469000
@<TRIPOS>BOND
     1     1     4 2   
     2     1     8 1   
     3     2     3 2   
     4     2    10 1   
     5     2    11 1   
     6     3     4 1   
     7     3    15 1   
     8     4     5 1   
     9     5    14 1   
    10     5    16 1   
    11     5    17 1   
    12     6    14 1   
    13     6    18 1   
    14     6    19 1   
    15     6    20 1   
    16     7    14 1   
    17     7    21 1   
    18     7    22 1   
    19     7    23 1   
    20     8     9 2   
    21     8    10 1   
    22    10    25 1   
    23    11    12 1   
    24    11    13 1   
    25    14    24 1   
@<TRIPOS>SUBSTRUCTURE
     1 S6Y         1 TEMP              0 ****  ****    0 ROOT
