@<TRIPOS>MOLECULE
S6Z
   40    41     1     0     0
SMALL
No Charge or Current Charge


@<TRIPOS>ATOM
      1 CAA         10.0710    80.7500    -0.1840 c3         1 S6Z      -0.109100
      2 CAB          8.8490    80.0380    -2.3170 c3         1 S6Z      -0.109100
      3 CAC          9.6330    70.9240    -3.5870 c3         1 S6Z      -0.086433
      4 CAD         10.8140    72.7380    -4.9000 c3         1 S6Z      -0.086433
      5 CAE         11.3610    72.3800    -2.4620 c3         1 S6Z      -0.086433
      6 CAJ          5.6920    76.5560     0.2040 ca         1 S6Z      -0.056000
      7 CAK          8.0840    76.9600    -1.2160 ca         1 S6Z      -0.187000
      8 CAN          9.4020    79.5910    -0.9450 c3         1 S6Z       0.179300
      9 CAO          6.4140    77.7480     0.3730 ca         1 S6Z       0.080000
     10 CAP          6.1560    75.5660    -0.6770 ca         1 S6Z       0.089000
     11 CAQ          7.6140    77.9620    -0.3380 ca         1 S6Z       0.176100
     12 CAR          7.3540    75.7700    -1.3990 ca         1 S6Z       0.123600
     13 CAS          9.1070    73.3460    -3.1560 cc         1 S6Z       0.516600
     14 CAU          7.2040    74.3610    -3.4650 c          1 S6Z       0.668100
     15 CAV         10.2170    72.3620    -3.5170 c3         1 S6Z      -0.051300
     16 NAL          9.0770    74.1430    -2.1200 n2         1 S6Z      -0.466300
     17 NAT          7.8620    74.7830    -2.3040 n          1 S6Z      -0.114000
     18 OAI          8.3010    79.1480    -0.1290 os         1 S6Z      -0.334100
     19 OAM          8.0300    73.4390    -3.9750 os         1 S6Z      -0.390700
     20 Cl1          5.7980    78.9680     1.4900 cl         1 S6Z      -0.168000
     21 Cl2          5.2400    74.0630    -0.8150 cl         1 S6Z      -0.165000
     22 H1          10.4430    80.4060     0.7880 hc         1 S6Z       0.050367
     23 H2          10.9220    81.1430    -0.7540 hc         1 S6Z       0.050367
     24 H3           9.3620    81.5690    -0.0150 hc         1 S6Z       0.050367
     25 H4           8.4020    79.1990    -2.8610 hc         1 S6Z       0.050367
     26 H5           8.0840    80.8140    -2.1920 hc         1 S6Z       0.050367
     27 H6           9.6540    80.4490    -2.9370 hc         1 S6Z       0.050367
     28 H7           9.1930    70.6350    -2.6250 hc         1 S6Z       0.047033
     29 H8           8.8500    70.8520    -4.3520 hc         1 S6Z       0.047033
     30 H9          10.4130    70.1940    -3.8370 hc         1 S6Z       0.047033
     31 H10         11.2250    73.7550    -4.8830 hc         1 S6Z       0.047033
     32 H11         11.6210    72.0510    -5.1820 hc         1 S6Z       0.047033
     33 H12         10.0490    72.6970    -5.6860 hc         1 S6Z       0.047033
     34 H13         10.9850    72.1060    -1.4690 hc         1 S6Z       0.047033
     35 H14         12.1530    71.6690    -2.7290 hc         1 S6Z       0.047033
     36 H15         11.8150    73.3760    -2.3910 hc         1 S6Z       0.047033
     37 H16          4.7740    76.3960     0.7620 ha         1 S6Z       0.149000
     38 H17          9.0110    77.0830    -1.7660 ha         1 S6Z       0.137000
     39 H18         10.1480    78.7970    -1.0770 h1         1 S6Z       0.045700
     40 OAH          6.1390    74.7410    -3.9290 o          1 S6Z      -0.481000
@<TRIPOS>BOND
     1     1     8 1   
     2     1    22 1   
     3     1    23 1   
     4     1    24 1   
     5     2     8 1   
     6     2    25 1   
     7     2    26 1   
     8     2    27 1   
     9     3    15 1   
    10     3    28 1   
    11     3    29 1   
    12     3    30 1   
    13     4    15 1   
    14     4    31 1   
    15     4    32 1   
    16     4    33 1   
    17     5    15 1   
    18     5    34 1   
    19     5    35 1   
    20     5    36 1   
    21     6     9 ar  
    22     6    10 ar  
    23     6    37 1   
    24     7    11 ar  
    25     7    12 ar  
    26     7    38 1   
    27     8    18 1   
    28     8    39 1   
    29     9    11 ar  
    30     9    20 1   
    31    10    12 ar  
    32    10    21 1   
    33    11    18 1   
    34    12    17 1   
    35    13    15 1   
    36    13    16 2   
    37    13    19 1   
    38    14    17 1   
    39    14    19 1   
    40    14    40 2   
    41    16    17 1   
@<TRIPOS>SUBSTRUCTURE
     1 S6Z         1 TEMP              0 ****  ****    0 ROOT
