@<TRIPOS>MOLECULE
S6Z
   40    41     1     0     0
SMALL
bcc


@<TRIPOS>ATOM
      1 CAA         10.1070    80.5210    -0.2430 c3         1 S6Z      -0.109100
      2 CAB          8.9960    79.8550    -2.4000 c3         1 S6Z      -0.109100
      3 CAC          9.7170    71.0530    -3.6090 c3         1 S6Z      -0.086433
      4 CAD         10.7720    72.9780    -4.8300 c3         1 S6Z      -0.086433
      5 CAE         11.2920    72.5890    -2.4080 c3         1 S6Z      -0.086433
      6 CAJ          5.6910    76.5690     0.2250 ca         1 S6Z      -0.074000
      7 CAK          8.0100    76.9100    -1.2600 ca         1 S6Z      -0.205000
      8 CAN          9.3980    79.4190    -1.0020 c3         1 S6Z       0.156100
      9 CAO          6.4210    77.7360     0.3230 ca         1 S6Z      -0.011600
     10 CAP          6.1250    75.5550    -0.6150 ca         1 S6Z      -0.002600
     11 CAQ          7.6010    77.9300    -0.4080 ca         1 S6Z       0.176100
     12 CAR          7.2790    75.7340    -1.3630 ca         1 S6Z       0.123600
     13 CAS          9.0660    73.3790    -3.1060 cc         1 S6Z       0.516600
     14 CAU          7.0990    74.3010    -3.3600 c          1 S6Z       0.810600
     15 CAV         10.2110    72.5000    -3.4830 c3         1 S6Z      -0.051300
     16 NAL          8.9670    74.1620    -2.1040 n2         1 S6Z      -0.466300
     17 NAT          7.7290    74.7330    -2.2380 n          1 S6Z      -0.181000
     18 OAI          8.2380    79.0840    -0.2230 os         1 S6Z      -0.310900
     19 OAM          7.9690    73.4060    -3.9000 os         1 S6Z      -0.390700
     20 CL1          5.8840    78.9860     1.3790 cl         1 S6Z      -0.076400
     21 CL2          5.2430    74.0780    -0.6910 cl         1 S6Z      -0.073400
     22 H1          10.3900    80.1960     0.7580 hc         1 S6Z       0.050367
     23 H2          11.0170    80.8000    -0.7740 hc         1 S6Z       0.050367
     24 H3           9.4810    81.4110    -0.1590 hc         1 S6Z       0.050367
     25 H4           8.4910    79.0680    -2.9600 hc         1 S6Z       0.050367
     26 H5           8.3370    80.7230    -2.3580 hc         1 S6Z       0.050367
     27 H6           9.8860    80.1350    -2.9640 hc         1 S6Z       0.050367
     28 H7           9.3080    70.6880    -2.6660 hc         1 S6Z       0.047033
     29 H8           8.9530    70.9420    -4.3790 hc         1 S6Z       0.047033
     30 H9          10.5550    70.4110    -3.8830 hc         1 S6Z       0.047033
     31 H10         11.1230    74.0090    -4.7700 hc         1 S6Z       0.047033
     32 H11         11.6200    72.3520    -5.1090 hc         1 S6Z       0.047033
     33 H12         10.0340    72.9120    -5.6290 hc         1 S6Z       0.047033
     34 H13         10.9300    72.2400    -1.4410 hc         1 S6Z       0.047033
     35 H14         12.1330    71.9600    -2.6990 hc         1 S6Z       0.047033
     36 H15         11.6620    73.6070    -2.2870 hc         1 S6Z       0.047033
     37 H16          4.7910    76.4440     0.8100 ha         1 S6Z       0.167000
     38 H17          8.9010    77.0060    -1.8640 ha         1 S6Z       0.155000
     39 H18         10.0600    78.5490    -1.0530 h1         1 S6Z       0.045700
     40 OAH          6.0370    74.5990    -3.8300 o          1 S6Z      -0.556500
@<TRIPOS>BOND
     1     1     8 1   
     2     1    22 1   
     3     1    23 1   
     4     1    24 1   
     5     2     8 1   
     6     2    25 1   
     7     2    26 1   
     8     2    27 1   
     9     3    15 1   
    10     3    28 1   
    11     3    29 1   
    12     3    30 1   
    13     4    15 1   
    14     4    31 1   
    15     4    32 1   
    16     4    33 1   
    17     5    15 1   
    18     5    34 1   
    19     5    35 1   
    20     5    36 1   
    21     6     9 ar  
    22     6    10 ar  
    23     6    37 1   
    24     7    11 ar  
    25     7    12 ar  
    26     7    38 1   
    27     8    18 1   
    28     8    39 1   
    29     9    11 ar  
    30     9    20 1   
    31    10    12 ar  
    32    10    21 1   
    33    11    18 1   
    34    12    17 1   
    35    13    15 1   
    36    13    16 2   
    37    13    19 1   
    38    14    17 1   
    39    14    19 1   
    40    14    40 2   
    41    16    17 1   
@<TRIPOS>SUBSTRUCTURE
     1 S6Z         1 TEMP              0 ****  ****    0 ROOT
