@<TRIPOS>MOLECULE
S71
   56    58     1     0     0
SMALL
abcg2


@<TRIPOS>ATOM
      1 N22          7.5890    -0.0730     0.8390 nv         1 S71      -1.054900
      2 C22          6.3800     0.5450     0.6930 ca         1 S71       0.598900
      3 C23          6.3050     1.9010     0.3350 ca         1 S71      -0.232000
      4 C24          5.0630     2.4780     0.1490 ca         1 S71       0.002700
      5 C27          4.9260     3.9160    -0.2460 c3         1 S71      -0.053800
      6 C25          3.9330     1.6770     0.3290 ca         1 S71      -0.214000
      7 N21          5.2950    -0.2070     0.8640 nb         1 S71      -0.752000
      8 C26          4.0970     0.3480     0.6820 ca         1 S71       0.397300
      9 C20          2.8980    -0.5420     0.8580 c3         1 S71      -0.127700
     10 C17          2.2570    -0.9490    -0.4820 c3         1 S71      -0.007400
     11 C18          3.2220    -1.7440    -1.3610 c3         1 S71       0.155800
     12 N19          2.6110    -2.0610    -2.6410 n8         1 S71      -1.000200
     13 C15          0.9720    -1.6970    -0.2260 ca         1 S71      -0.125300
     14 C16          0.9650    -2.9840     0.3100 ca         1 S71       0.326900
     15 N11         -0.1400    -3.6660     0.5760 nb         1 S71      -0.666000
     16 C12         -1.3080    -3.0890     0.3210 ca         1 S71       0.330900
     17 C14         -0.2630    -1.1210    -0.4870 ca         1 S71      -0.067000
     18 C13         -1.4390    -1.8120    -0.2120 ca         1 S71      -0.128300
     19 C09         -2.7850    -1.1910    -0.4410 c3         1 S71      -0.023100
     20 C08         -3.1500    -0.2050     0.6760 c3         1 S71      -0.123700
     21 C06         -4.4810     0.4500     0.4420 ca         1 S71       0.397300
     22 C05         -5.5440     0.2400     1.3030 ca         1 S71      -0.216000
     23 C04         -6.7670     0.8670     1.0380 ca         1 S71       0.002700
     24 C07         -7.9310     0.6970     1.9660 c3         1 S71      -0.053800
     25 N01         -4.5720     1.2240    -0.6410 nb         1 S71      -0.757000
     26 C02         -5.7310     1.8160    -0.9090 ca         1 S71       0.604900
     27 N02         -5.8010     2.5520    -2.0550 nv         1 S71      -1.059900
     28 C03         -6.8600     1.6630    -0.0850 ca         1 S71      -0.234000
     29 H221         8.3900     0.5100     1.0170 hn         1 S71       0.468000
     30 H222         7.5860    -0.9350     1.3590 hn         1 S71       0.468000
     31 H23          7.2110     2.4820     0.2120 ha         1 S71       0.119000
     32 H271         4.6620     3.9990    -1.3020 hc         1 S71       0.047033
     33 H272         4.1330     4.4060     0.3200 hc         1 S71       0.047033
     34 H273         5.8510     4.4690    -0.0910 hc         1 S71       0.047033
     35 H25          2.9390     2.0890     0.2010 ha         1 S71       0.122000
     36 H201         3.1950    -1.4330     1.4160 hc         1 S71       0.061200
     37 H202         2.1450    -0.0230     1.4560 hc         1 S71       0.061200
     38 H17          2.0000    -0.0360    -1.0270 hc         1 S71       0.067700
     39 H181         4.1060    -1.1320    -1.5500 h1         1 S71       0.038200
     40 H182         3.5780    -2.6240    -0.8060 h1         1 S71       0.038200
     41 H191         3.2970    -2.5100    -3.2350 hn         1 S71       0.394000
     42 H192         1.8760    -2.7450    -2.5100 hn         1 S71       0.394000
     43 H16          1.9010    -3.4880     0.5330 h4         1 S71       0.018100
     44 H14         -0.3110    -0.1230    -0.9100 ha         1 S71       0.122000
     45 H12         -2.1960    -3.6720     0.5470 h4         1 S71       0.016100
     46 H091        -2.7930    -0.6630    -1.3970 hc         1 S71       0.060700
     47 H092        -3.5480    -1.9700    -0.5000 hc         1 S71       0.060700
     48 H081        -3.1560    -0.7260     1.6360 hc         1 S71       0.054200
     49 H082        -2.3770     0.5670     0.7390 hc         1 S71       0.054200
     50 H05         -5.4290    -0.4030     2.1670 ha         1 S71       0.122000
     51 H071        -7.8780     1.4210     2.7810 hc         1 S71       0.046700
     52 H072        -8.8800     0.8500     1.4540 hc         1 S71       0.046700
     53 H073        -7.9390    -0.2950     2.4160 hc         1 S71       0.046700
     54 H03         -7.7870     2.1640    -0.3360 ha         1 S71       0.119000
     55 H021        -4.9250     2.8260    -2.4670 hn         1 S71       0.471000
     56 H022        -6.5310     3.2400    -2.1320 hn         1 S71       0.471000
@<TRIPOS>BOND
     1     1     2 1   
     2     1    29 1   
     3     1    30 1   
     4     2     3 ar  
     5     2     7 ar  
     6     3     4 ar  
     7     3    31 1   
     8     4     5 1   
     9     4     6 ar  
    10     5    32 1   
    11     5    33 1   
    12     5    34 1   
    13     6     8 ar  
    14     6    35 1   
    15     7     8 ar  
    16     8     9 1   
    17     9    10 1   
    18     9    36 1   
    19     9    37 1   
    20    10    11 1   
    21    10    13 1   
    22    10    38 1   
    23    11    12 1   
    24    11    39 1   
    25    11    40 1   
    26    12    41 1   
    27    12    42 1   
    28    13    14 ar  
    29    13    17 ar  
    30    14    15 ar  
    31    14    43 1   
    32    15    16 ar  
    33    16    18 ar  
    34    16    45 1   
    35    17    18 ar  
    36    17    44 1   
    37    18    19 1   
    38    19    20 1   
    39    19    46 1   
    40    19    47 1   
    41    20    21 1   
    42    20    48 1   
    43    20    49 1   
    44    21    22 ar  
    45    21    25 ar  
    46    22    23 ar  
    47    22    50 1   
    48    23    24 1   
    49    23    28 ar  
    50    24    51 1   
    51    24    52 1   
    52    24    53 1   
    53    25    26 ar  
    54    26    27 1   
    55    26    28 ar  
    56    27    55 1   
    57    27    56 1   
    58    28    54 1   
@<TRIPOS>SUBSTRUCTURE
     1 S71         1 TEMP              0 ****  ****    0 ROOT
