@<TRIPOS>MOLECULE
S71
   56    58     1     0     0
SMALL
No Charge or Current Charge


@<TRIPOS>ATOM
      1 N22          7.6360    -0.0940     0.8540 nv         1 S71      -1.054900
      2 C22          6.5140     0.5690     0.5700 ca         1 S71       0.598900
      3 C23          6.4940     1.8740     0.0730 ca         1 S71      -0.232000
      4 C24          5.2500     2.4720    -0.1770 ca         1 S71       0.002700
      5 C27          5.1480     3.8860    -0.7230 c3         1 S71      -0.053800
      6 C25          4.1020     1.7090     0.0900 ca         1 S71      -0.214000
      7 N21          5.4440    -0.1650     0.8340 nb         1 S71      -0.752000
      8 C26          4.2400     0.4000     0.5920 ca         1 S71       0.397300
      9 C20          3.0150    -0.4530     0.8880 c3         1 S71      -0.127700
     10 C17          2.2830    -0.9470    -0.3880 c3         1 S71      -0.007400
     11 C18          3.1940    -1.8410    -1.2760 c3         1 S71       0.155800
     12 N19          2.5140    -2.2880    -2.5110 n8         1 S71      -1.000200
     13 C15          0.9720    -1.6460    -0.0110 ca         1 S71      -0.125300
     14 C16          0.9740    -2.8900     0.6570 ca         1 S71       0.326900
     15 N11         -0.1550    -3.5430     1.0190 nb         1 S71      -0.666000
     16 C12         -1.3400    -2.9620     0.7230 ca         1 S71       0.330900
     17 C14         -0.2690    -1.0520    -0.3090 ca         1 S71      -0.067000
     18 C13         -1.4490    -1.7210     0.0630 ca         1 S71      -0.128300
     19 C09         -2.8130    -1.1140    -0.2380 c3         1 S71      -0.023100
     20 C08         -3.1770     0.0190     0.7460 c3         1 S71      -0.123700
     21 C06         -4.5500     0.6110     0.4680 ca         1 S71       0.397300
     22 C05         -5.7150    -0.0220     0.9420 ca         1 S71      -0.216000
     23 C04         -6.9710     0.5420     0.6660 ca         1 S71       0.002700
     24 C07         -8.2540    -0.1050     1.1620 c3         1 S71      -0.053800
     25 N01         -4.5830     1.7540    -0.2540 nb         1 S71      -0.757000
     26 C02         -5.7770     2.2680    -0.5050 ca         1 S71       0.604900
     27 N02         -5.6750     3.3940    -1.2130 nv         1 S71      -1.059900
     28 C03         -6.9930     1.7290    -0.0810 ca         1 S71      -0.234000
     29 H221         8.4720     0.4540     1.0240 hn         1 S71       0.468000
     30 H222         7.5140    -0.9260     1.4190 hn         1 S71       0.468000
     31 H23          7.4200     2.4070    -0.1160 ha         1 S71       0.119000
     32 H271         5.1000     3.8790    -1.8190 hc         1 S71       0.047033
     33 H272         4.2490     4.3920    -0.3520 hc         1 S71       0.047033
     34 H273         6.0130     4.4920    -0.4290 hc         1 S71       0.047033
     35 H25          3.1120     2.1200    -0.0870 ha         1 S71       0.122000
     36 H201         3.2900    -1.3170     1.5060 hc         1 S71       0.061200
     37 H202         2.3120     0.1350     1.4900 hc         1 S71       0.061200
     38 H17          2.0440    -0.0580    -0.9850 hc         1 S71       0.067700
     39 H181         4.0970    -1.2840    -1.5630 h1         1 S71       0.038200
     40 H182         3.5100    -2.7270    -0.7070 h1         1 S71       0.038200
     41 H191         3.1140    -2.9640    -3.0000 hn         1 S71       0.394000
     42 H192         1.6850    -2.8370    -2.2550 hn         1 S71       0.394000
     43 H16          1.9110    -3.3820     0.9160 h4         1 S71       0.018100
     44 H14         -0.3180    -0.0910    -0.8180 ha         1 S71       0.122000
     45 H12         -2.2310    -3.5090     1.0290 h4         1 S71       0.016100
     46 H091        -2.8270    -0.7180    -1.2610 hc         1 S71       0.060700
     47 H092        -3.5900    -1.8880    -0.2000 hc         1 S71       0.060700
     48 H081        -3.1490    -0.3750     1.7690 hc         1 S71       0.054200
     49 H082        -2.4070     0.7990     0.6990 hc         1 S71       0.054200
     50 H05         -5.6370    -0.9400     1.5180 ha         1 S71       0.122000
     51 H071        -8.5050     0.2490     2.1680 hc         1 S71       0.046700
     52 H072        -9.0990     0.1270     0.5030 hc         1 S71       0.046700
     53 H073        -8.1580    -1.1970     1.2040 hc         1 S71       0.046700
     54 H03         -7.9300     2.2190    -0.3280 ha         1 S71       0.119000
     55 H021        -4.7430     3.7880    -1.2420 hn         1 S71       0.471000
     56 H022        -6.4440     4.0520    -1.1610 hn         1 S71       0.471000
@<TRIPOS>BOND
     1     1     2 1   
     2     1    29 1   
     3     1    30 1   
     4     2     3 ar  
     5     2     7 ar  
     6     3     4 ar  
     7     3    31 1   
     8     4     5 1   
     9     4     6 ar  
    10     5    32 1   
    11     5    33 1   
    12     5    34 1   
    13     6     8 ar  
    14     6    35 1   
    15     7     8 ar  
    16     8     9 1   
    17     9    10 1   
    18     9    36 1   
    19     9    37 1   
    20    10    11 1   
    21    10    13 1   
    22    10    38 1   
    23    11    12 1   
    24    11    39 1   
    25    11    40 1   
    26    12    41 1   
    27    12    42 1   
    28    13    14 ar  
    29    13    17 ar  
    30    14    15 ar  
    31    14    43 1   
    32    15    16 ar  
    33    16    18 ar  
    34    16    45 1   
    35    17    18 ar  
    36    17    44 1   
    37    18    19 1   
    38    19    20 1   
    39    19    46 1   
    40    19    47 1   
    41    20    21 1   
    42    20    48 1   
    43    20    49 1   
    44    21    22 ar  
    45    21    25 ar  
    46    22    23 ar  
    47    22    50 1   
    48    23    24 1   
    49    23    28 ar  
    50    24    51 1   
    51    24    52 1   
    52    24    53 1   
    53    25    26 ar  
    54    26    27 1   
    55    26    28 ar  
    56    27    55 1   
    57    27    56 1   
    58    28    54 1   
@<TRIPOS>SUBSTRUCTURE
     1 S71         1 TEMP              0 ****  ****    0 ROOT
