@<TRIPOS>MOLECULE
S72
   74    77     1     0     0
SMALL
No Charge or Current Charge


@<TRIPOS>ATOM
      1 C           -5.6290    -0.9000     1.5420 c3         1 S72      -0.034800
      2 F            5.1450    -6.0720     0.2110 f          1 S72      -0.180000
      3 N           -3.1670     0.6420    -0.8120 nc         1 S72      -0.359000
      4 O           -3.4280     0.7930     2.8520 o          1 S72      -0.622100
      5 C1          -4.7470    -0.3730     0.4310 cd         1 S72      -0.088300
      6 N1          -3.9500     0.0190    -1.6530 nd         1 S72      -0.202800
      7 O1           4.3020     0.7950     2.0740 o          1 S72      -0.593100
      8 C2          -3.6340     0.4230     0.4620 cc         1 S72       0.125500
      9 N2          -4.9270    -0.6080    -0.9210 na         1 S72       0.113800
     10 O2           5.8170     2.8070    -1.2530 o          1 S72      -0.590100
     11 C3          -5.9920    -1.3910    -1.5770 c3         1 S72       0.124900
     12 N3          -1.8980     1.7460     1.4650 ns         1 S72      -0.490900
     13 C4          -7.4020    -0.8340    -1.3710 ca         1 S72      -0.126300
     14 N4           4.9680     0.3170    -0.0720 n          1 S72      -0.394800
     15 C5          -7.6500     0.5530    -1.4360 ca         1 S72      -0.089000
     16 N5           5.2070     2.2040    -3.3590 ns         1 S72      -0.508900
     17 C6          -8.9500     1.0520    -1.2400 ca         1 S72      -0.110000
     18 C7         -10.0110     0.1690    -0.9810 ca         1 S72      -0.094000
     19 C8          -9.7720    -1.2140    -0.9210 ca         1 S72      -0.110000
     20 C9          -8.4730    -1.7140    -1.1160 ca         1 S72      -0.089000
     21 C10         -3.0150     0.9770     1.7120 c          1 S72       0.544600
     22 C11         -1.0510     2.3930     2.4760 c6         1 S72       0.120700
     23 C12         -0.2770     3.5840     1.8510 c6         1 S72      -0.088900
     24 C13          0.7790     3.1240     0.8110 c6         1 S72      -0.074400
     25 C14          1.7800     2.1060     1.4250 c6         1 S72      -0.050700
     26 C15          1.0110     0.9060     2.0480 c6         1 S72      -0.074400
     27 C16         -0.0400     1.3830     3.0840 c6         1 S72      -0.088900
     28 C17          2.8240     1.6400     0.3630 c3         1 S72      -0.153400
     29 C18          4.0810     0.8960     0.8730 c          1 S72       0.619100
     30 C19          6.1370    -0.4750     0.3770 c3         1 S72       0.137300
     31 C20          5.8790    -1.9750     0.3330 ca         1 S72      -0.123300
     32 C21          6.3630    -2.7500    -0.7400 ca         1 S72      -0.073500
     33 C22          6.1150    -4.1340    -0.7800 ca         1 S72      -0.155000
     34 C23          5.3830    -4.7430     0.2510 ca         1 S72       0.172000
     35 C24          4.8970    -3.9780     1.3220 ca         1 S72      -0.155000
     36 C25          5.1440    -2.5950     1.3640 ca         1 S72      -0.073500
     37 C26          4.8620     0.5760    -1.5410 c3         1 S72       0.015000
     38 C27          5.3450     1.9680    -2.0080 c          1 S72       0.563100
     39 C28          5.5940     3.4520    -4.0220 c3         1 S72       0.094300
     40 H           -6.2010    -0.0870     2.0040 hc         1 S72       0.066033
     41 HA          -6.3450    -1.6480     1.1860 hc         1 S72       0.066033
     42 HB          -5.0300    -1.3760     2.3280 hc         1 S72       0.066033
     43 H3          -5.7830    -1.4340    -2.6530 h1         1 S72       0.078700
     44 H3A         -5.9370    -2.4170    -1.1940 h1         1 S72       0.078700
     45 HN3         -1.6390     1.8390     0.4900 hn         1 S72       0.334500
     46 H5          -6.8390     1.2500    -1.6400 ha         1 S72       0.119000
     47 HN5          4.8090     1.4590    -3.9220 hn         1 S72       0.314500
     48 H6          -9.1340     2.1230    -1.2900 ha         1 S72       0.118000
     49 H7         -11.0170     0.5550    -0.8300 ha         1 S72       0.117000
     50 H8         -10.5940    -1.8990    -0.7220 ha         1 S72       0.118000
     51 H9          -8.3010    -2.7880    -1.0670 ha         1 S72       0.119000
     52 H11         -1.7030     2.7750     3.2760 h1         1 S72       0.070700
     53 H12         -0.9830     4.2830     1.3830 hc         1 S72       0.052700
     54 H12A         0.2230     4.1480     2.6510 hc         1 S72       0.052700
     55 H13          0.2790     2.6790    -0.0610 hc         1 S72       0.041700
     56 H13A         1.3240     4.0020     0.4360 hc         1 S72       0.041700
     57 H14          2.3400     2.6210     2.2190 hc         1 S72       0.071700
     58 H15          0.5160     0.3260     1.2560 hc         1 S72       0.041700
     59 H15A         1.7110     0.2170     2.5380 hc         1 S72       0.041700
     60 H16          0.4740     1.8530     3.9340 hc         1 S72       0.052700
     61 H16A        -0.5770     0.5180     3.4950 hc         1 S72       0.052700
     62 H17          2.3530     1.0300    -0.4150 hc         1 S72       0.062200
     63 H17A         3.1870     2.4840    -0.2340 hc         1 S72       0.062200
     64 H19          6.9960    -0.2340    -0.2640 h1         1 S72       0.074200
     65 H19A         6.4270    -0.1870     1.3960 h1         1 S72       0.074200
     66 H21          6.9300    -2.2830    -1.5430 ha         1 S72       0.121500
     67 H22          6.4870    -4.7330    -1.6070 ha         1 S72       0.132000
     68 H24          4.3300    -4.4570     2.1160 ha         1 S72       0.132000
     69 H25          4.7640    -2.0040     2.1950 ha         1 S72       0.121500
     70 H26          5.4620    -0.1660    -2.0820 h1         1 S72       0.068700
     71 H26A         3.8280     0.4400    -1.8800 h1         1 S72       0.068700
     72 H28          5.3780     3.3800    -5.0950 h1         1 S72       0.042700
     73 H28A         5.0280     4.2890    -3.5940 h1         1 S72       0.042700
     74 H28B         6.6680     3.6270    -3.8800 h1         1 S72       0.042700
@<TRIPOS>BOND
     1     1     5 1   
     2     1    40 1   
     3     1    41 1   
     4     1    42 1   
     5     2    34 1   
     6     3     6 2   
     7     3     8 1   
     8     4    21 2   
     9     5     8 2   
    10     5     9 1   
    11     6     9 1   
    12     7    29 2   
    13     8    21 1   
    14     9    11 1   
    15    10    38 2   
    16    11    13 1   
    17    11    43 1   
    18    11    44 1   
    19    12    21 1   
    20    12    22 1   
    21    12    45 1   
    22    13    15 ar  
    23    13    20 ar  
    24    14    29 1   
    25    14    30 1   
    26    14    37 1   
    27    15    17 ar  
    28    15    46 1   
    29    16    38 1   
    30    16    39 1   
    31    16    47 1   
    32    17    18 ar  
    33    17    48 1   
    34    18    19 ar  
    35    18    49 1   
    36    19    20 ar  
    37    19    50 1   
    38    20    51 1   
    39    22    23 1   
    40    22    27 1   
    41    22    52 1   
    42    23    24 1   
    43    23    53 1   
    44    23    54 1   
    45    24    25 1   
    46    24    55 1   
    47    24    56 1   
    48    25    26 1   
    49    25    28 1   
    50    25    57 1   
    51    26    27 1   
    52    26    58 1   
    53    26    59 1   
    54    27    60 1   
    55    27    61 1   
    56    28    29 1   
    57    28    62 1   
    58    28    63 1   
    59    30    31 1   
    60    30    64 1   
    61    30    65 1   
    62    31    32 ar  
    63    31    36 ar  
    64    32    33 ar  
    65    32    66 1   
    66    33    34 ar  
    67    33    67 1   
    68    34    35 ar  
    69    35    36 ar  
    70    35    68 1   
    71    36    69 1   
    72    37    38 1   
    73    37    70 1   
    74    37    71 1   
    75    39    72 1   
    76    39    73 1   
    77    39    74 1   
@<TRIPOS>SUBSTRUCTURE
     1 S72         1 TEMP              0 ****  ****    0 ROOT
