@<TRIPOS>MOLECULE
S72
   74    77     1     0     0
SMALL
abcg2


@<TRIPOS>ATOM
      1 C           -5.8400    -1.0420     1.6870 c3         1 S72      -0.034800
      2 F            6.1660    -5.7820    -0.3290 f          1 S72      -0.180000
      3 N           -3.3760     0.4120    -0.6290 nc         1 S72      -0.359000
      4 O           -3.4570     0.6260     2.9500 o          1 S72      -0.622100
      5 C1          -4.9330    -0.5370     0.6290 cd         1 S72      -0.088300
      6 N1          -4.1820    -0.1860    -1.4230 nd         1 S72      -0.202800
      7 O1           4.1390     0.9180     2.0950 o          1 S72      -0.593100
      8 C2          -3.7880     0.2320     0.6460 cc         1 S72       0.125500
      9 N2          -5.1220    -0.7650    -0.6830 na         1 S72       0.113800
     10 O2           5.5990     2.6720    -1.1980 o          1 S72      -0.590100
     11 C3          -6.2170    -1.4740    -1.3180 c3         1 S72       0.124900
     12 N3          -1.9970     1.5400     1.4780 ns         1 S72      -0.490900
     13 C4          -7.5040    -0.6940    -1.2520 ca         1 S72      -0.126300
     14 N4           4.7490     0.3570    -0.0000 n          1 S72      -0.394800
     15 C5          -7.5910     0.5660    -1.8400 ca         1 S72      -0.089000
     16 N5           5.3720     1.8320    -3.2770 ns         1 S72      -0.508900
     17 C6          -8.7770     1.2830    -1.7830 ca         1 S72      -0.110000
     18 C7          -9.8870     0.7470    -1.1400 ca         1 S72      -0.094000
     19 C8          -9.8050    -0.5070    -0.5530 ca         1 S72      -0.110000
     20 C9          -8.6150    -1.2230    -0.6070 ca         1 S72      -0.089000
     21 C10         -3.0710     0.8080     1.8010 c          1 S72       0.544600
     22 C11         -1.1450     2.1980     2.4550 c6         1 S72       0.120700
     23 C12         -0.4450     3.3850     1.7980 c6         1 S72      -0.088900
     24 C13          0.6110     2.9560     0.7830 c6         1 S72      -0.074400
     25 C14          1.6420     2.0100     1.4000 c6         1 S72      -0.050700
     26 C15          0.9360     0.8090     2.0310 c6         1 S72      -0.074400
     27 C16         -0.1140     1.2370     3.0500 c6         1 S72      -0.088900
     28 C17          2.6550     1.5900     0.3410 c3         1 S72      -0.153400
     29 C18          3.9040     0.9330     0.8960 c          1 S72       0.619100
     30 C19          6.0070    -0.2200     0.4430 c3         1 S72       0.137300
     31 C20          6.0510    -1.7110     0.2260 ca         1 S72      -0.123300
     32 C21          7.0480    -2.2930    -0.5470 ca         1 S72      -0.073500
     33 C22          7.1000    -3.6680    -0.7410 ca         1 S72      -0.155000
     34 C23          6.1290    -4.4500    -0.1500 ca         1 S72       0.172000
     35 C24          5.1170    -3.9080     0.6220 ca         1 S72      -0.155000
     36 C25          5.0870    -2.5350     0.8040 ca         1 S72      -0.073500
     37 C26          4.6090     0.4880    -1.4230 c3         1 S72       0.015000
     38 C27          5.2520     1.7720    -1.9480 c          1 S72       0.563100
     39 C28          5.9070     2.9890    -3.9580 c3         1 S72       0.094300
     40 H           -6.7160    -0.3980     1.7820 hc         1 S72       0.066033
     41 HA          -6.1950    -2.0470     1.4610 hc         1 S72       0.066033
     42 HB          -5.3310    -1.0620     2.6440 hc         1 S72       0.066033
     43 H3          -5.9110    -1.6480    -2.3490 h1         1 S72       0.078700
     44 H3A         -6.3280    -2.4480    -0.8430 h1         1 S72       0.078700
     45 HN3         -1.7600     1.6100     0.5000 hn         1 S72       0.334500
     46 H5          -6.7320     0.9890    -2.3460 ha         1 S72       0.119000
     47 HN5          5.0850     1.0430    -3.8320 hn         1 S72       0.314500
     48 H6          -8.8370     2.2600    -2.2460 ha         1 S72       0.118000
     49 H7         -10.8120     1.3070    -1.0990 ha         1 S72       0.117000
     50 H8         -10.6630    -0.9290    -0.0480 ha         1 S72       0.118000
     51 H9          -8.5520    -2.2010    -0.1430 ha         1 S72       0.119000
     52 H11         -1.7880     2.5690     3.2560 h1         1 S72       0.070700
     53 H12         -1.1830     4.0410     1.3290 hc         1 S72       0.052700
     54 H12A         0.0360     3.9700     2.5870 hc         1 S72       0.052700
     55 H13          0.1420     2.4710    -0.0830 hc         1 S72       0.041700
     56 H13A         1.1110     3.8430     0.3860 hc         1 S72       0.041700
     57 H14          2.1660     2.5570     2.1920 hc         1 S72       0.071700
     58 H15          0.4660     0.2120     1.2400 hc         1 S72       0.041700
     59 H15A         1.6620     0.1550     2.5170 hc         1 S72       0.041700
     60 H16          0.3760     1.7420     3.8890 hc         1 S72       0.052700
     61 H16A        -0.6200     0.3640     3.4670 hc         1 S72       0.052700
     62 H17          2.1610     0.9270    -0.3770 hc         1 S72       0.062200
     63 H17A         2.9700     2.4690    -0.2310 hc         1 S72       0.062200
     64 H19          6.8320     0.2570    -0.0920 h1         1 S72       0.074200
     65 H19A         6.1430     0.0110     1.4970 h1         1 S72       0.074200
     66 H21          7.8040    -1.6690    -1.0100 ha         1 S72       0.121500
     67 H22          7.8790    -4.1180    -1.3420 ha         1 S72       0.132000
     68 H24          4.3690    -4.5460     1.0740 ha         1 S72       0.132000
     69 H25          4.3010    -2.1040     1.4120 ha         1 S72       0.121500
     70 H26          5.0620    -0.3820    -1.9060 h1         1 S72       0.068700
     71 H26A         3.5630     0.4700    -1.7280 h1         1 S72       0.068700
     72 H28          5.8260     2.8260    -5.0280 h1         1 S72       0.042700
     73 H28A         5.3510     3.8920    -3.7040 h1         1 S72       0.042700
     74 H28B         6.9570     3.1520    -3.7120 h1         1 S72       0.042700
@<TRIPOS>BOND
     1     1     5 1   
     2     1    40 1   
     3     1    41 1   
     4     1    42 1   
     5     2    34 1   
     6     3     6 2   
     7     3     8 1   
     8     4    21 2   
     9     5     8 2   
    10     5     9 1   
    11     6     9 1   
    12     7    29 2   
    13     8    21 1   
    14     9    11 1   
    15    10    38 2   
    16    11    13 1   
    17    11    43 1   
    18    11    44 1   
    19    12    21 1   
    20    12    22 1   
    21    12    45 1   
    22    13    15 ar  
    23    13    20 ar  
    24    14    29 1   
    25    14    30 1   
    26    14    37 1   
    27    15    17 ar  
    28    15    46 1   
    29    16    38 1   
    30    16    39 1   
    31    16    47 1   
    32    17    18 ar  
    33    17    48 1   
    34    18    19 ar  
    35    18    49 1   
    36    19    20 ar  
    37    19    50 1   
    38    20    51 1   
    39    22    23 1   
    40    22    27 1   
    41    22    52 1   
    42    23    24 1   
    43    23    53 1   
    44    23    54 1   
    45    24    25 1   
    46    24    55 1   
    47    24    56 1   
    48    25    26 1   
    49    25    28 1   
    50    25    57 1   
    51    26    27 1   
    52    26    58 1   
    53    26    59 1   
    54    27    60 1   
    55    27    61 1   
    56    28    29 1   
    57    28    62 1   
    58    28    63 1   
    59    30    31 1   
    60    30    64 1   
    61    30    65 1   
    62    31    32 ar  
    63    31    36 ar  
    64    32    33 ar  
    65    32    66 1   
    66    33    34 ar  
    67    33    67 1   
    68    34    35 ar  
    69    35    36 ar  
    70    35    68 1   
    71    36    69 1   
    72    37    38 1   
    73    37    70 1   
    74    37    71 1   
    75    39    72 1   
    76    39    73 1   
    77    39    74 1   
@<TRIPOS>SUBSTRUCTURE
     1 S72         1 TEMP              0 ****  ****    0 ROOT
