@<TRIPOS>MOLECULE
S73
   49    51     1     0     0
SMALL
No Charge or Current Charge


@<TRIPOS>ATOM
      1 N           -6.1500    -2.1540     0.3700 no         1 S73       0.686200
      2 O           -8.3550     1.2750     1.8640 oh         1 S73      -0.667000
      3 C1          -6.2260     0.2970     1.0980 ca         1 S73      -0.073300
      4 C10         -0.8600     0.0610     0.2920 c5         1 S73      -0.112400
      5 C12          3.2500     0.8770    -1.1000 ca         1 S73      -0.076300
      6 C13          3.8810     1.3070     0.0830 ca         1 S73      -0.091500
      7 C14          5.0420     0.6650     0.5490 ca         1 S73      -0.101500
      8 C15          5.5870    -0.4240    -0.1710 ca         1 S73       0.091100
      9 C16          7.4870    -0.7960     1.4060 c3         1 S73       0.514000
     10 C17          4.9540    -0.8510    -1.3500 ca         1 S73      -0.101500
     11 C18          3.7930    -0.2070    -1.8140 ca         1 S73      -0.091500
     12 C2          -5.5990    -0.7610     0.3770 ca         1 S73      -0.119200
     13 C3          -4.4120    -0.5020    -0.3500 ca         1 S73      -0.145000
     14 C4          -5.6170     1.5730     1.0920 ca         1 S73      -0.057000
     15 C5          -4.4330     1.8060     0.3740 ca         1 S73      -0.152000
     16 C6          -3.8230     0.7690    -0.3450 ca         1 S73       0.318000
     17 C7          -1.5140     1.3990    -0.1880 c5         1 S73       0.215500
     18 C8          -0.4300     2.0280    -1.1360 c5         1 S73       0.157800
     19 C9           0.3810    -0.0820    -0.6250 c5         1 S73       0.157800
     20 F            6.7520    -0.9250     2.5340 f          1 S73      -0.109667
     21 F1           7.9860     0.4620     1.3740 f          1 S73      -0.109667
     22 F2           8.5410    -1.6320     1.5270 f          1 S73      -0.109667
     23 N1          -2.6510     0.9920    -1.0750 nu         1 S73      -0.948200
     24 N2           0.8150     1.3270    -0.7310 n3         1 S73      -0.724600
     25 O1          -6.0890    -2.7910    -0.6900 o          1 S73      -0.402000
     26 O2          -6.4730    -2.6570     1.4540 o          1 S73      -0.402000
     27 O3           6.7240    -1.1070     0.2220 os         1 S73      -0.403100
     28 H1          -7.2980    -0.1990     2.9030 h1         1 S73       0.049200
     29 H2          -8.1100    -0.7320     1.4230 h1         1 S73       0.049200
     30 H3          -9.1700     1.0620     2.3720 ho         1 S73       0.452000
     31 H4          -0.5420     0.1570     1.3360 hc         1 S73       0.059200
     32 H5          -1.5160    -0.8150     0.2470 hc         1 S73       0.059200
     33 H6           2.1910     2.6580    -1.6360 h1         1 S73       0.044200
     34 H7           1.7750     1.2560    -2.6230 h1         1 S73       0.044200
     35 H8           3.4640     2.1400     0.6450 ha         1 S73       0.127500
     36 H9           5.4960     1.0270     1.4660 ha         1 S73       0.135000
     37 H10          5.3670    -1.6880    -1.9080 ha         1 S73       0.135000
     38 H11          3.3160    -0.5540    -2.7280 ha         1 S73       0.127500
     39 H12         -3.9310    -1.3030    -0.9050 ha         1 S73       0.145000
     40 H13         -6.0670     2.3980     1.6400 ha         1 S73       0.141000
     41 H14         -3.9960     2.8000     0.3690 ha         1 S73       0.125000
     42 H15         -1.7770     2.0710     0.6430 h1         1 S73       0.076700
     43 H16         -0.6530     1.8430    -2.1970 h1         1 S73       0.045200
     44 H17         -0.3540     3.1150    -0.9980 h1         1 S73       0.045200
     45 H18          1.1480    -0.7290    -0.1770 h1         1 S73       0.044200
     46 H19          0.1120    -0.4970    -1.6070 h1         1 S73       0.044200
     47 H20         -2.4660     0.2760    -1.7780 hn         1 S73       0.475000
     48 C           -7.5400     0.0920     1.8710 c3         1 S73       0.214900
     49 C11          1.9890     1.5790    -1.5940 c3         1 S73       0.218100
@<TRIPOS>BOND
     1     1    12 1   
     2     1    25 1   
     3     1    26 1   
     4     2    30 1   
     5     2    48 1   
     6     3    12 ar  
     7     3    14 ar  
     8     3    48 1   
     9     4    17 1   
    10     4    19 1   
    11     4    31 1   
    12     4    32 1   
    13     5     6 ar  
    14     5    11 ar  
    15     5    49 1   
    16     6     7 ar  
    17     6    35 1   
    18     7     8 ar  
    19     7    36 1   
    20     8    10 ar  
    21     8    27 1   
    22     9    20 1   
    23     9    21 1   
    24     9    22 1   
    25     9    27 1   
    26    10    11 ar  
    27    10    37 1   
    28    11    38 1   
    29    12    13 ar  
    30    13    16 ar  
    31    13    39 1   
    32    14    15 ar  
    33    14    40 1   
    34    15    16 ar  
    35    15    41 1   
    36    16    23 1   
    37    17    18 1   
    38    17    23 1   
    39    17    42 1   
    40    18    24 1   
    41    18    43 1   
    42    18    44 1   
    43    19    24 1   
    44    19    45 1   
    45    19    46 1   
    46    23    47 1   
    47    24    49 1   
    48    28    48 1   
    49    29    48 1   
    50    33    49 1   
    51    34    49 1   
@<TRIPOS>SUBSTRUCTURE
     1 S73         1 TEMP              0 ****  ****    0 ROOT
