@<TRIPOS>MOLECULE
S73
   49    51     1     0     0
SMALL
abcg2


@<TRIPOS>ATOM
      1 N           -7.3020    -0.5060    -1.0860 no         1 S73       0.686200
      2 O           -7.5150     0.7160     3.0920 oh         1 S73      -0.667000
      3 C1          -6.3440     0.2250     1.0840 ca         1 S73      -0.073300
      4 C10         -0.8730    -0.1530     0.4740 c5         1 S73      -0.112400
      5 C12          3.2680     0.4690    -0.8980 ca         1 S73      -0.076300
      6 C13          3.5390     1.0640     0.3320 ca         1 S73      -0.091500
      7 C14          4.7240     0.8090     1.0020 ca         1 S73      -0.101500
      8 C15          5.6460    -0.0540     0.4320 ca         1 S73       0.091100
      9 C16          7.8950     0.3840     0.9010 c3         1 S73       0.514000
     10 C17          5.4030    -0.6670    -0.7830 ca         1 S73      -0.101500
     11 C18          4.2070    -0.4020    -1.4380 ca         1 S73      -0.091500
     12 C2          -6.1910    -0.0090    -0.2870 ca         1 S73      -0.119200
     13 C3          -5.0040     0.1940    -0.9690 ca         1 S73      -0.145000
     14 C4          -5.1970     0.6770     1.7300 ca         1 S73      -0.057000
     15 C5          -3.9890     0.8680     1.0820 ca         1 S73      -0.152000
     16 C6          -3.8640     0.6350    -0.2930 ca         1 S73       0.318000
     17 C7          -1.4380     1.0560    -0.3210 c5         1 S73       0.215500
     18 C8          -0.3470     1.3620    -1.3520 c5         1 S73       0.157800
     19 C9           0.4510    -0.4660    -0.2140 c5         1 S73       0.157800
     20 F            7.7000     1.6800     1.1540 f          1 S73      -0.109667
     21 F1           8.3190     0.3010    -0.3620 f          1 S73      -0.109667
     22 F2           8.8620    -0.0540     1.6930 f          1 S73      -0.109667
     23 N1          -2.7020     0.8450    -0.9840 nu         1 S73      -0.948200
     24 N2           0.8530     0.8220    -0.7520 n3         1 S73      -0.724600
     25 O1          -7.3310    -0.2320    -2.2630 o          1 S73      -0.402000
     26 O2          -8.1410    -1.1830    -0.5360 o          1 S73      -0.402000
     27 O3           6.8100    -0.3610     1.1340 os         1 S73      -0.403100
     28 H1          -7.8090    -1.0260     2.0150 h1         1 S73       0.049200
     29 H2          -8.4760     0.4270     1.2860 h1         1 S73       0.049200
     30 H3          -8.2010     0.3770     3.6740 ho         1 S73       0.452000
     31 H4          -0.7060     0.1230     1.5160 hc         1 S73       0.059200
     32 H5          -1.5560    -1.0030     0.4650 hc         1 S73       0.059200
     33 H6           2.0900     1.7600    -2.1120 h1         1 S73       0.044200
     34 H7           1.8570     0.0510    -2.4530 h1         1 S73       0.044200
     35 H8           2.8090     1.7270     0.7770 ha         1 S73       0.127500
     36 H9           4.9200     1.2640     1.9640 ha         1 S73       0.135000
     37 H10          6.1170    -1.3600    -1.2080 ha         1 S73       0.135000
     38 H11          4.0060    -0.8870    -2.3860 ha         1 S73       0.127500
     39 H12         -4.9490    -0.0010    -2.0320 ha         1 S73       0.145000
     40 H13         -5.2400     0.8850     2.7890 ha         1 S73       0.141000
     41 H14         -3.1420     1.2020     1.6660 ha         1 S73       0.125000
     42 H15         -1.5460     1.9140     0.3460 h1         1 S73       0.076700
     43 H16         -0.5910     0.8640    -2.3080 h1         1 S73       0.045200
     44 H17         -0.2440     2.4290    -1.5580 h1         1 S73       0.045200
     45 H18          1.2030    -0.8660     0.4670 h1         1 S73       0.044200
     46 H19          0.3060    -1.2090    -1.0170 h1         1 S73       0.044200
     47 H20         -2.6510     0.3930    -1.8840 hn         1 S73       0.475000
     48 C           -7.6270     0.0430     1.8620 c3         1 S73       0.214900
     49 C11          1.9910     0.7790    -1.6350 c3         1 S73       0.218100
@<TRIPOS>BOND
     1     1    12 1   
     2     1    25 1   
     3     1    26 1   
     4     2    30 1   
     5     2    48 1   
     6     3    12 ar  
     7     3    14 ar  
     8     3    48 1   
     9     4    17 1   
    10     4    19 1   
    11     4    31 1   
    12     4    32 1   
    13     5     6 ar  
    14     5    11 ar  
    15     5    49 1   
    16     6     7 ar  
    17     6    35 1   
    18     7     8 ar  
    19     7    36 1   
    20     8    10 ar  
    21     8    27 1   
    22     9    20 1   
    23     9    21 1   
    24     9    22 1   
    25     9    27 1   
    26    10    11 ar  
    27    10    37 1   
    28    11    38 1   
    29    12    13 ar  
    30    13    16 ar  
    31    13    39 1   
    32    14    15 ar  
    33    14    40 1   
    34    15    16 ar  
    35    15    41 1   
    36    16    23 1   
    37    17    18 1   
    38    17    23 1   
    39    17    42 1   
    40    18    24 1   
    41    18    43 1   
    42    18    44 1   
    43    19    24 1   
    44    19    45 1   
    45    19    46 1   
    46    23    47 1   
    47    24    49 1   
    48    28    48 1   
    49    29    48 1   
    50    33    49 1   
    51    34    49 1   
@<TRIPOS>SUBSTRUCTURE
     1 S73         1 TEMP              0 ****  ****    0 ROOT
