@<TRIPOS>MOLECULE
S74
   67    71     1     0     0
SMALL
bcc


@<TRIPOS>ATOM
      1 C26         -7.4490     2.8870    -2.1370 ca         1 S74      -0.130500
      2 C32         -7.5230    -3.2660    -0.9260 ca         1 S74      -0.130500
      3 C25         -6.7340     1.7590    -2.5200 ca         1 S74      -0.131500
      4 C27         -7.3040     3.3760    -0.8460 ca         1 S74      -0.131500
      5 C31         -6.1480    -3.4230    -1.0370 ca         1 S74      -0.131500
      6 C33         -8.0360    -2.2020    -0.1940 ca         1 S74      -0.131500
      7 C24         -5.8860     1.1240    -1.6230 ca         1 S74      -0.116750
      8 C28         -6.4540     2.7400     0.0480 ca         1 S74      -0.116750
      9 C30         -5.2910    -2.5220    -0.4190 ca         1 S74      -0.116750
     10 C34         -7.1770    -1.3010     0.4190 ca         1 S74      -0.116750
     11 C12          6.3110    -0.2860     0.8990 ca         1 S74      -0.102000
     12 C14          6.4150     1.4740    -0.6930 ca         1 S74      -0.102000
     13 C11          4.9390    -0.0990     1.0400 ca         1 S74      -0.191500
     14 C15          5.0540     1.6770    -0.5700 ca         1 S74      -0.191500
     15 C23         -5.7310     1.6060    -0.3230 ca         1 S74      -0.051300
     16 C29         -5.7960    -1.4520     0.3150 ca         1 S74      -0.051300
     17 C13          7.0800     0.4870     0.0400 ca         1 S74      -0.071300
     18 C10          4.2980     0.8900     0.3030 ca         1 S74       0.108100
     19 C18         10.4440    -0.5420    -1.6960 c          1 S74       0.927600
     20 C3          -1.6300    -0.8070     1.1580 c          1 S74       0.787100
     21 C1           0.9200     1.4010     1.5060 c6         1 S74      -0.123900
     22 C19          1.6890    -0.8620     0.7460 c6         1 S74      -0.123900
     23 C6          -0.0770     0.6900     2.4140 c6         1 S74       0.095000
     24 C8           0.6490    -1.4860     1.6750 c6         1 S74       0.095000
     25 C21         -4.8480     0.9730     0.6860 cx         1 S74      -0.070900
     26 C22         -4.8810    -0.5090     1.0110 cx         1 S74      -0.070900
     27 C20         -3.7020     0.0800     0.3170 cx         1 S74       0.077700
     28 C4           2.1270     0.5010     1.2740 c6         1 S74       0.162100
     29 C17          8.9400    -0.2930    -1.4780 c3         1 S74      -0.204400
     30 N5          -0.4770    -0.5890     1.8580 n          1 S74      -0.478800
     31 N2          -2.4850     0.2530     1.0330 ns         1 S74      -0.564900
     32 O36         11.2090    -0.3590    -0.7290 o          1 S74      -0.844800
     33 O35         10.7740    -0.9190    -2.8400 o          1 S74      -0.844800
     34 O7          -1.9150    -1.9070     0.6990 o          1 S74      -0.635100
     35 O9           2.9780     1.1790     0.3610 os         1 S74      -0.337900
     36 H1          -8.1110     3.3790    -2.8380 ha         1 S74       0.126500
     37 H2          -8.1920    -3.9680    -1.4080 ha         1 S74       0.126500
     38 H3          -6.8360     1.3690    -3.5240 ha         1 S74       0.128250
     39 H4          -7.8510     4.2570    -0.5330 ha         1 S74       0.128250
     40 H5          -5.7400    -4.2510    -1.6030 ha         1 S74       0.128250
     41 H6          -9.1070    -2.0710    -0.1040 ha         1 S74       0.128250
     42 H7          -5.3480     0.2460    -1.9560 ha         1 S74       0.137250
     43 H8          -6.3490     3.1310     1.0530 ha         1 S74       0.137250
     44 H9          -4.2180    -2.6480    -0.4980 ha         1 S74       0.137250
     45 H10         -7.5830    -0.4670     0.9790 ha         1 S74       0.137250
     46 H11          6.7870    -1.0650     1.4850 ha         1 S74       0.133000
     47 H12          6.9770     2.1070    -1.3710 ha         1 S74       0.133000
     48 H13          4.3990    -0.7350     1.7290 ha         1 S74       0.123000
     49 H14          4.5640     2.4560    -1.1420 ha         1 S74       0.123000
     50 H15          0.4480     1.6460     0.5490 hc         1 S74       0.063200
     51 H16          1.2330     2.3390     1.9700 hc         1 S74       0.063200
     52 H17          2.5360    -1.5440     0.6550 hc         1 S74       0.063200
     53 H18          1.2600    -0.7430    -0.2540 hc         1 S74       0.063200
     54 H19          0.3900     0.4980     3.3840 h1         1 S74       0.057950
     55 H20         -0.9400     1.3170     2.6280 h1         1 S74       0.057950
     56 H21          0.3050    -2.4370     1.2780 h1         1 S74       0.057950
     57 H22          1.0950    -1.6910     2.6530 h1         1 S74       0.057950
     58 H23         -4.6770     1.6000     1.5550 hc         1 S74       0.090200
     59 H24         -4.7360    -0.7180     2.0670 hc         1 S74       0.090200
     60 H25         -3.6020    -0.1580    -0.7400 h1         1 S74       0.086700
     61 H26          2.6400     0.3730     2.2370 h1         1 S74       0.042700
     62 H27          9.0860     1.2150     0.0480 hc         1 S74       0.051200
     63 H28          8.9090    -0.4050     0.6720 hc         1 S74       0.051200
     64 H29          8.5840     0.3780    -2.2680 hc         1 S74       0.020200
     65 H30          8.4060    -1.2350    -1.6490 hc         1 S74       0.020200
     66 H31         -2.1220     1.1920     1.0630 hn         1 S74       0.314500
     67 C16          8.5600     0.2690    -0.1120 c3         1 S74      -0.019100
@<TRIPOS>BOND
     1     1     3 ar  
     2     1     4 ar  
     3     1    36 1   
     4     2     5 ar  
     5     2     6 ar  
     6     2    37 1   
     7     3     7 ar  
     8     3    38 1   
     9     4     8 ar  
    10     4    39 1   
    11     5     9 ar  
    12     5    40 1   
    13     6    10 ar  
    14     6    41 1   
    15     7    15 ar  
    16     7    42 1   
    17     8    15 ar  
    18     8    43 1   
    19     9    16 ar  
    20     9    44 1   
    21    10    16 ar  
    22    10    45 1   
    23    11    13 ar  
    24    11    17 ar  
    25    11    46 1   
    26    12    14 ar  
    27    12    17 ar  
    28    12    47 1   
    29    13    18 ar  
    30    13    48 1   
    31    14    18 ar  
    32    14    49 1   
    33    15    25 1   
    34    16    26 1   
    35    17    67 1   
    36    18    35 1   
    37    19    29 1   
    38    19    32 1   
    39    19    33 1   
    40    20    30 1   
    41    20    31 1   
    42    20    34 2   
    43    21    23 1   
    44    21    28 1   
    45    21    50 1   
    46    21    51 1   
    47    22    24 1   
    48    22    28 1   
    49    22    52 1   
    50    22    53 1   
    51    23    30 1   
    52    23    54 1   
    53    23    55 1   
    54    24    30 1   
    55    24    56 1   
    56    24    57 1   
    57    25    26 1   
    58    25    27 1   
    59    25    58 1   
    60    26    27 1   
    61    26    59 1   
    62    27    31 1   
    63    27    60 1   
    64    28    35 1   
    65    28    61 1   
    66    29    64 1   
    67    29    65 1   
    68    29    67 1   
    69    31    66 1   
    70    62    67 1   
    71    63    67 1   
@<TRIPOS>SUBSTRUCTURE
     1 S74         1 TEMP              0 ****  ****    0 ROOT
