@<TRIPOS>MOLECULE
S74
   67    71     1     0     0
SMALL
No Charge or Current Charge


@<TRIPOS>ATOM
      1 C26         -9.0050     2.2180    -0.7130 ca         1 S74      -0.112500
      2 C32         -7.4000    -3.7380     0.0010 ca         1 S74      -0.112500
      3 C25         -8.3140     1.2520    -1.4620 ca         1 S74      -0.113500
      4 C27         -8.4080     2.7710     0.4320 ca         1 S74      -0.113500
      5 C31         -6.1940    -3.6550    -0.7150 ca         1 S74      -0.113500
      6 C33         -7.7110    -2.7640     0.9650 ca         1 S74      -0.113500
      7 C24         -7.0280     0.8410    -1.0700 ca         1 S74      -0.098750
      8 C28         -7.1230     2.3590     0.8250 ca         1 S74      -0.098750
      9 C30         -5.3000    -2.5970    -0.4690 ca         1 S74      -0.098750
     10 C34         -6.8170    -1.7070     1.2110 ca         1 S74      -0.098750
     11 C12          6.2840    -0.6060     1.1260 ca         1 S74      -0.084000
     12 C14          7.3470     1.4340     0.3440 ca         1 S74      -0.084000
     13 C11          5.0180    -0.0170     0.9530 ca         1 S74      -0.173500
     14 C15          6.0830     2.0240     0.1710 ca         1 S74      -0.173500
     15 C23         -6.4180     1.3920     0.0800 ca         1 S74      -0.051300
     16 C29         -5.6100    -1.6140     0.4910 ca         1 S74      -0.051300
     17 C13          7.4540     0.1150     0.8230 ca         1 S74      -0.071300
     18 C10          4.9130     1.3060     0.4660 ca         1 S74       0.108100
     19 C18         10.6800    -1.9010    -0.0120 c          1 S74       0.717000
     20 C3          -1.5970    -0.0470    -0.7450 c          1 S74       0.653100
     21 C1           1.2990     2.2840     0.3670 c6         1 S74      -0.123900
     22 C19          2.2340     0.3570    -0.8890 c6         1 S74      -0.123900
     23 C6          -0.0840     1.6020     0.4550 c6         1 S74       0.095000
     24 C8           0.8810    -0.3820    -0.8230 c6         1 S74       0.095000
     25 C21         -5.0390     0.9710     0.5390 cx         1 S74      -0.070900
     26 C22         -4.6590    -0.4810     0.7520 cx         1 S74      -0.070900
     27 C20         -4.0320     0.3060    -0.3750 cx         1 S74       0.077700
     28 C4           2.4400     1.2580     0.3430 c6         1 S74       0.185300
     29 C17          9.2970    -1.2770    -0.2580 c3         1 S74      -0.204400
     30 N5          -0.3060     0.4710    -0.5050 n          1 S74      -0.411800
     31 N2          -2.6490     0.6800    -0.2400 ns         1 S74      -0.497900
     32 O36         10.7280    -3.0260     0.4610 o          1 S74      -0.739500
     33 O35         11.6680    -1.2260    -0.2530 o          1 S74      -0.739500
     34 O7          -1.7770    -1.0830    -1.3680 o          1 S74      -0.635100
     35 O9           3.7050     1.9530     0.2780 os         1 S74      -0.361100
     36 H1         -10.0000     2.5350    -1.0170 ha         1 S74       0.108500
     37 H2          -8.0910    -4.5560    -0.1890 ha         1 S74       0.108500
     38 H3          -8.7760     0.8190    -2.3460 ha         1 S74       0.110250
     39 H4          -8.9420     3.5180     1.0160 ha         1 S74       0.110250
     40 H5          -5.9500    -4.4100    -1.4590 ha         1 S74       0.110250
     41 H6          -8.6440    -2.8270     1.5210 ha         1 S74       0.110250
     42 H7          -6.5200     0.0850    -1.6610 ha         1 S74       0.119250
     43 H8          -6.6760     2.7940     1.7160 ha         1 S74       0.119250
     44 H9          -4.3670    -2.5420    -1.0260 ha         1 S74       0.119250
     45 H10         -7.0640    -0.9540     1.9560 ha         1 S74       0.119250
     46 H11          6.3550    -1.6260     1.4970 ha         1 S74       0.115000
     47 H12          8.2440     2.0020     0.1050 ha         1 S74       0.115000
     48 H13          4.1400    -0.6020     1.2050 ha         1 S74       0.105000
     49 H14          6.0100     3.0430    -0.1980 ha         1 S74       0.105000
     50 H15          1.3420     2.9050    -0.5380 hc         1 S74       0.063200
     51 H16          1.4260     2.9660     1.2190 hc         1 S74       0.063200
     52 H17          3.0430    -0.3780    -0.9770 hc         1 S74       0.063200
     53 H18          2.2710     0.9670    -1.8020 hc         1 S74       0.063200
     54 H19         -0.2210     1.2130     1.4750 h1         1 S74       0.057950
     55 H20         -0.8430     2.3810     0.3000 h1         1 S74       0.057950
     56 H21          0.7200    -0.8900    -1.7850 h1         1 S74       0.057950
     57 H22          0.9470    -1.1680    -0.0560 h1         1 S74       0.057950
     58 H23         -4.6270     1.6730     1.2600 hc         1 S74       0.090200
     59 H24         -4.0230    -0.6870     1.6090 hc         1 S74       0.090200
     60 H25         -4.3280     0.0690    -1.3970 h1         1 S74       0.086700
     61 H26          2.3950     0.6680     1.2690 h1         1 S74       0.042700
     62 H27          9.5640     0.2380     1.2740 hc         1 S74       0.051200
     63 H28          8.7970    -1.2270     1.8540 hc         1 S74       0.051200
     64 H29          9.3500    -0.5210    -1.0510 hc         1 S74       0.020200
     65 H30          8.5480    -2.0570    -0.4410 hc         1 S74       0.020200
     66 H31         -2.4140     1.5310     0.2490 hn         1 S74       0.314500
     67 C16          8.8230    -0.5270     1.0090 c3         1 S74      -0.019100
@<TRIPOS>BOND
     1     1     3 ar  
     2     1     4 ar  
     3     1    36 1   
     4     2     5 ar  
     5     2     6 ar  
     6     2    37 1   
     7     3     7 ar  
     8     3    38 1   
     9     4     8 ar  
    10     4    39 1   
    11     5     9 ar  
    12     5    40 1   
    13     6    10 ar  
    14     6    41 1   
    15     7    15 ar  
    16     7    42 1   
    17     8    15 ar  
    18     8    43 1   
    19     9    16 ar  
    20     9    44 1   
    21    10    16 ar  
    22    10    45 1   
    23    11    13 ar  
    24    11    17 ar  
    25    11    46 1   
    26    12    14 ar  
    27    12    17 ar  
    28    12    47 1   
    29    13    18 ar  
    30    13    48 1   
    31    14    18 ar  
    32    14    49 1   
    33    15    25 1   
    34    16    26 1   
    35    17    67 1   
    36    18    35 1   
    37    19    29 1   
    38    19    32 1   
    39    19    33 1   
    40    20    30 1   
    41    20    31 1   
    42    20    34 2   
    43    21    23 1   
    44    21    28 1   
    45    21    50 1   
    46    21    51 1   
    47    22    24 1   
    48    22    28 1   
    49    22    52 1   
    50    22    53 1   
    51    23    30 1   
    52    23    54 1   
    53    23    55 1   
    54    24    30 1   
    55    24    56 1   
    56    24    57 1   
    57    25    26 1   
    58    25    27 1   
    59    25    58 1   
    60    26    27 1   
    61    26    59 1   
    62    27    31 1   
    63    27    60 1   
    64    28    35 1   
    65    28    61 1   
    66    29    64 1   
    67    29    65 1   
    68    29    67 1   
    69    31    66 1   
    70    62    67 1   
    71    63    67 1   
@<TRIPOS>SUBSTRUCTURE
     1 S74         1 TEMP              0 ****  ****    0 ROOT
