@<TRIPOS>MOLECULE
S76
   17    17     1     0     0
SMALL
No Charge or Current Charge


@<TRIPOS>ATOM
      1 O2           0.8880    -2.5360    -0.0230 o          1 S76      -0.563000
      2 C2           0.6650    -1.3410    -0.0160 c          1 S76       0.626000
      3 N3           1.6460    -0.4050    -0.0270 ns         1 S76      -0.471500
      4 C4           1.5010     0.9450    -0.0220 c          1 S76       0.613200
      5 O4           2.4530     1.7040    -0.0320 o          1 S76      -0.549000
      6 C5           0.1120     1.3840    -0.0010 cc         1 S76      -0.511200
      7 N1          -0.5930    -0.8330     0.0020 ns         1 S76      -0.546600
      8 C6          -0.8960     0.4820     0.0100 cd         1 S76       0.372600
      9 N6          -2.1920     0.8570     0.0290 nu         1 S76      -0.848200
     10 C7          -3.3850    -0.0110     0.0430 c3         1 S76       0.206100
     11 H3           2.5910    -0.7510    -0.0410 hn         1 S76       0.343500
     12 H1          -1.3300    -1.5200     0.0100 hn         1 S76       0.455000
     13 H5          -0.0520     2.4530     0.0040 ha         1 S76       0.216000
     14 H6          -2.3450     1.8680     0.0330 hn         1 S76       0.515000
     15 H71C        -3.4110    -0.6490    -0.8520 h1         1 S76       0.047367
     16 H72C        -3.3870    -0.6540     0.9340 h1         1 S76       0.047367
     17 H73C        -4.3000     0.5960     0.0570 h1         1 S76       0.047367
@<TRIPOS>BOND
     1     1     2 2   
     2     2     3 1   
     3     2     7 1   
     4     3     4 1   
     5     3    11 1   
     6     4     5 2   
     7     4     6 1   
     8     6     8 2   
     9     6    13 1   
    10     7     8 1   
    11     7    12 1   
    12     8     9 1   
    13     9    10 1   
    14     9    14 1   
    15    10    15 1   
    16    10    16 1   
    17    10    17 1   
@<TRIPOS>SUBSTRUCTURE
     1 S76         1 TEMP              0 ****  ****    0 ROOT
