@<TRIPOS>MOLECULE
S76
   17    17     1     0     0
SMALL
bcc


@<TRIPOS>ATOM
      1 O2           0.8390    -2.5470    -0.0220 o          1 S76      -0.638500
      2 C2           0.6410    -1.3480    -0.0160 c          1 S76       0.835500
      3 N3           1.6320    -0.4170    -0.0310 ns         1 S76      -0.605500
      4 C4           1.4740     0.9750    -0.0230 c          1 S76       0.755700
      5 O4           2.4770     1.6800    -0.0370 o          1 S76      -0.624500
      6 C5           0.1290     1.4210     0.0010 cc         1 S76      -0.461200
      7 N1          -0.6310    -0.8240     0.0050 ns         1 S76      -0.500100
      8 C6          -0.9090     0.5150     0.0130 cd         1 S76       0.372600
      9 N6          -2.1950     0.8720     0.0310 nu         1 S76      -0.793000
     10 C7          -3.3210    -0.0320     0.0390 c3         1 S76       0.206100
     11 H3           2.5790    -0.7720    -0.0470 hn         1 S76       0.343500
     12 H1          -1.3780    -1.5040     0.0190 hn         1 S76       0.341500
     13 H5          -0.0760     2.4800     0.0060 ha         1 S76       0.166000
     14 H6          -2.3850     1.8590     0.0460 hn         1 S76       0.459800
     15 H71C        -3.3460    -0.6670    -0.8480 h1         1 S76       0.047367
     16 H72C        -3.3370    -0.6640     0.9290 h1         1 S76       0.047367
     17 H73C        -4.2280     0.5640     0.0420 h1         1 S76       0.047367
@<TRIPOS>BOND
     1     1     2 2   
     2     2     3 1   
     3     2     7 1   
     4     3     4 1   
     5     3    11 1   
     6     4     5 2   
     7     4     6 1   
     8     6     8 2   
     9     6    13 1   
    10     7     8 1   
    11     7    12 1   
    12     8     9 1   
    13     9    10 1   
    14     9    14 1   
    15    10    15 1   
    16    10    16 1   
    17    10    17 1   
@<TRIPOS>SUBSTRUCTURE
     1 S76         1 TEMP              0 ****  ****    0 ROOT
