@<TRIPOS>MOLECULE
S77
   44    47     1     0     0
SMALL
abcg2


@<TRIPOS>ATOM
      1 C18         -4.8210     0.2660    -1.5630 c3         1 S77       0.061900
      2 N2          -4.6710    -0.2560    -0.2230 na         1 S77      -0.371000
      3 C13         -5.5060    -1.1110     0.4100 cc         1 S77       0.369400
      4 N5          -5.0600    -1.3830     1.6000 nd         1 S77      -0.354000
      5 N4          -3.9010    -0.6950     1.7620 nd         1 S77      -0.357000
      6 C4          -3.6710    -0.0230     0.6660 cc         1 S77       0.385800
      7 C3          -2.4950     0.8500     0.3960 c6         1 S77      -0.085000
      8 C9          -1.4780     0.1640    -0.5240 c6         1 S77      -0.077400
      9 C7          -0.2840     1.0730    -0.7570 c6         1 S77       0.202300
     10 C8          -1.7990     1.2840     1.6810 c6         1 S77      -0.077400
     11 C6          -0.5930     2.1620     1.3800 c6         1 S77       0.202300
     12 N1           0.3320     1.4580     0.5080 nh         1 S77      -0.762300
     13 C1           1.6430     1.9080     0.4700 ca         1 S77       0.596900
     14 N3           1.8940     3.1190     0.9510 nb         1 S77      -0.732000
     15 C14          3.1350     3.5940     0.9250 ca         1 S77       0.375900
     16 C15          4.1990     2.9010     0.3840 ca         1 S77      -0.196000
     17 C10          3.9530     1.6180    -0.0880 ca         1 S77      -0.045000
     18 C2           2.6770     1.0800    -0.0290 cp         1 S77      -0.112000
     19 C5           2.4660    -0.3290    -0.4120 cp         1 S77      -0.098000
     20 C12          2.9460    -0.8400    -1.6180 ca         1 S77      -0.054000
     21 C17          2.7690    -2.1760    -1.9260 ca         1 S77      -0.203000
     22 C16          2.1050    -2.9410    -0.9860 ca         1 S77       0.569200
     23 F            1.9010    -4.2380    -1.2350 f          1 S77      -0.226200
     24 N6           1.6500    -2.5080     0.1560 nb         1 S77      -0.700000
     25 C11          1.8270    -1.2220     0.4420 ca         1 S77       0.395900
     26 H1          -4.1860    -0.2700    -2.2660 h1         1 S77       0.054367
     27 H2          -5.8560     0.1570    -1.8730 h1         1 S77       0.054367
     28 H3          -4.5660     1.3230    -1.5880 h1         1 S77       0.054367
     29 H4          -6.4120    -1.4900    -0.0360 h5         1 S77       0.061100
     30 H5          -2.8490     1.7550    -0.1160 hc         1 S77       0.049700
     31 H6          -1.1500    -0.7750    -0.0700 hc         1 S77       0.063450
     32 H7          -1.9230    -0.0820    -1.4920 hc         1 S77       0.063450
     33 H8           0.4380     0.5660    -1.3920 h1         1 S77       0.045950
     34 H9          -0.6120     1.9700    -1.3050 h1         1 S77       0.045950
     35 H10         -2.4900     1.8400     2.3180 hc         1 S77       0.063450
     36 H11         -1.4750     0.4060     2.2440 hc         1 S77       0.063450
     37 H12         -0.9230     3.1110     0.9340 h1         1 S77       0.045950
     38 H13         -0.0870     2.4120     2.3110 h1         1 S77       0.045950
     39 H14          3.2790     4.5810     1.3500 h4         1 S77       0.020100
     40 H15          5.1910     3.3310     0.3610 ha         1 S77       0.128000
     41 H16          4.7700     1.0140    -0.4630 ha         1 S77       0.120000
     42 H17          3.4490    -0.1910    -2.3240 ha         1 S77       0.123000
     43 H18          3.1260    -2.6000    -2.8540 ha         1 S77       0.142000
     44 H19          1.4420    -0.8870     1.3970 h4         1 S77       0.044100
@<TRIPOS>BOND
     1     1     2 1   
     2     1    26 1   
     3     1    27 1   
     4     1    28 1   
     5     2     3 1   
     6     2     6 1   
     7     3     4 2   
     8     3    29 1   
     9     4     5 1   
    10     5     6 2   
    11     6     7 1   
    12     7     8 1   
    13     7    10 1   
    14     7    30 1   
    15     8     9 1   
    16     8    31 1   
    17     8    32 1   
    18     9    12 1   
    19     9    33 1   
    20     9    34 1   
    21    10    11 1   
    22    10    35 1   
    23    10    36 1   
    24    11    12 1   
    25    11    37 1   
    26    11    38 1   
    27    12    13 1   
    28    13    14 ar  
    29    13    18 ar  
    30    14    15 ar  
    31    15    16 ar  
    32    15    39 1   
    33    16    17 ar  
    34    16    40 1   
    35    17    18 ar  
    36    17    41 1   
    37    18    19 1   
    38    19    20 ar  
    39    19    25 ar  
    40    20    21 ar  
    41    20    42 1   
    42    21    22 ar  
    43    21    43 1   
    44    22    23 1   
    45    22    24 ar  
    46    24    25 ar  
    47    25    44 1   
@<TRIPOS>SUBSTRUCTURE
     1 S77         1 TEMP              0 ****  ****    0 ROOT
