@<TRIPOS>MOLECULE
S77
   44    47     1     0     0
SMALL
No Charge or Current Charge


@<TRIPOS>ATOM
      1 C18         -5.2140     0.6840    -1.2620 c3         1 S77       0.061900
      2 N2          -4.8020    -0.2320    -0.1850 na         1 S77      -0.371000
      3 C13         -5.5280    -1.2870     0.3100 cc         1 S77       0.369400
      4 N5          -4.8310    -1.8860     1.2600 nd         1 S77      -0.354000
      5 N4          -3.6390    -1.2200     1.3910 nd         1 S77      -0.357000
      6 C4          -3.6200    -0.2150     0.5260 cc         1 S77       0.385800
      7 C3          -2.4960     0.7810     0.3040 c6         1 S77      -0.085000
      8 C9          -1.4590     0.2130    -0.7010 c6         1 S77      -0.077400
      9 C7          -0.2800     1.1950    -0.9080 c6         1 S77       0.202300
     10 C8          -1.7780     1.1530     1.6310 c6         1 S77      -0.077400
     11 C6          -0.6020     2.1260     1.3790 c6         1 S77       0.202300
     12 N1           0.3550     1.5550     0.3890 nh         1 S77      -0.762300
     13 C1           1.7090     1.9400     0.3920 ca         1 S77       0.596900
     14 N3           1.8960     3.2320     0.7290 nb         1 S77      -0.732000
     15 C14          3.1520     3.7230     0.7050 ca         1 S77       0.375900
     16 C15          4.2640     2.9550     0.3380 ca         1 S77      -0.196000
     17 C10          4.0790     1.6110    -0.0120 ca         1 S77      -0.045000
     18 C2           2.7750     1.0660     0.0150 cp         1 S77      -0.112000
     19 C5           2.5630    -0.3810    -0.3150 cp         1 S77      -0.098000
     20 C12          3.2130    -0.9800    -1.4200 ca         1 S77      -0.054000
     21 C17          2.9830    -2.3390    -1.6840 ca         1 S77      -0.203000
     22 C16          2.1240    -3.0570    -0.8420 ca         1 S77       0.569200
     23 F            1.8780    -4.3650    -1.0630 f          1 S77      -0.226200
     24 N6           1.4950    -2.5230     0.2230 nb         1 S77      -0.700000
     25 C11          1.7160    -1.2100     0.4720 ca         1 S77       0.395900
     26 H1          -4.4480     0.7030    -2.0480 h1         1 S77       0.054367
     27 H2          -6.1650     0.3490    -1.6970 h1         1 S77       0.054367
     28 H3          -5.3430     1.6960    -0.8580 h1         1 S77       0.054367
     29 H4          -6.5140    -1.5580    -0.0490 h5         1 S77       0.061100
     30 H5          -2.9090     1.7070    -0.1170 hc         1 S77       0.049700
     31 H6          -1.0740    -0.7490    -0.3390 hc         1 S77       0.063450
     32 H7          -1.9400     0.0110    -1.6680 hc         1 S77       0.063450
     33 H8           0.4510     0.7340    -1.5870 h1         1 S77       0.045950
     34 H9          -0.6510     2.1050    -1.4040 h1         1 S77       0.045950
     35 H10         -2.4900     1.6100     2.3320 hc         1 S77       0.063450
     36 H11         -1.3910     0.2490     2.1220 hc         1 S77       0.063450
     37 H12         -0.9940     3.0880     1.0160 h1         1 S77       0.045950
     38 H13         -0.0950     2.3140     2.3380 h1         1 S77       0.045950
     39 H14          3.2690     4.7700     0.9840 h4         1 S77       0.020100
     40 H15          5.2550     3.4000     0.3330 ha         1 S77       0.128000
     41 H16          4.9350     0.9940    -0.2820 ha         1 S77       0.120000
     42 H17          3.8710    -0.3990    -2.0620 ha         1 S77       0.123000
     43 H18          3.4570    -2.8350    -2.5260 ha         1 S77       0.142000
     44 H19          1.2090    -0.8040     1.3470 h4         1 S77       0.044100
@<TRIPOS>BOND
     1     1     2 1   
     2     1    26 1   
     3     1    27 1   
     4     1    28 1   
     5     2     3 1   
     6     2     6 1   
     7     3     4 2   
     8     3    29 1   
     9     4     5 1   
    10     5     6 2   
    11     6     7 1   
    12     7     8 1   
    13     7    10 1   
    14     7    30 1   
    15     8     9 1   
    16     8    31 1   
    17     8    32 1   
    18     9    12 1   
    19     9    33 1   
    20     9    34 1   
    21    10    11 1   
    22    10    35 1   
    23    10    36 1   
    24    11    12 1   
    25    11    37 1   
    26    11    38 1   
    27    12    13 1   
    28    13    14 ar  
    29    13    18 ar  
    30    14    15 ar  
    31    15    16 ar  
    32    15    39 1   
    33    16    17 ar  
    34    16    40 1   
    35    17    18 ar  
    36    17    41 1   
    37    18    19 1   
    38    19    20 ar  
    39    19    25 ar  
    40    20    21 ar  
    41    20    42 1   
    42    21    22 ar  
    43    21    43 1   
    44    22    23 1   
    45    22    24 ar  
    46    24    25 ar  
    47    25    44 1   
@<TRIPOS>SUBSTRUCTURE
     1 S77         1 TEMP              0 ****  ****    0 ROOT
