@<TRIPOS>MOLECULE
S78
   72    75     1     0     0
SMALL
abcg2


@<TRIPOS>ATOM
      1 C10         23.2490    41.2350    43.1290 c6         1 S78      -0.100400
      2 C13         20.4230    40.8560    40.9150 c3         1 S78       0.097600
      3 C15         19.9570    41.7930    38.5910 c3         1 S78       0.098600
      4 C20         15.4520    40.1500    40.1610 cc         1 S78      -0.246200
      5 C21         14.2170    39.8700    40.6680 cd         1 S78      -0.145100
      6 C24         12.2540    41.6490    42.9890 ca         1 S78      -0.124300
      7 C26         13.1720    41.6660    45.2200 ca         1 S78      -0.106000
      8 C28         11.2710    43.0370    44.7050 ca         1 S78      -0.106000
      9 C01         21.7910    36.1110    40.2520 c3         1 S78      -0.111767
     10 C02         23.2770    36.4170    40.3890 c3         1 S78       0.221000
     11 C03         23.8870    35.5370    41.4720 c3         1 S78      -0.111767
     12 C04         24.0270    36.2190    39.0790 c3         1 S78      -0.111767
     13 C06         23.0570    38.8530    40.2980 c          1 S78       0.663100
     14 C09         23.5910    39.9020    42.4720 c6         1 S78       0.111000
     15 C11         21.8540    41.7270    42.7490 c6         1 S78      -0.071400
     16 C12         21.6310    41.7360    41.2120 c6         1 S78      -0.107700
     17 C16         18.8510    42.6940    39.0870 c3         1 S78       0.141600
     18 C18         16.5930    42.4610    39.7940 ca         1 S78       0.148100
     19 C19         15.5770    41.5720    40.1770 ca         1 S78      -0.123800
     20 C25         13.1940    41.2010    43.9130 ca         1 S78      -0.095500
     21 C27         12.2100    42.5850    45.6210 ca         1 S78      -0.094000
     22 C29         11.2970    42.5720    43.3960 ca         1 S78      -0.095500
     23 C30         14.3810    42.0910    40.7080 ca         1 S78      -0.015200
     24 C31         14.1670    43.4620    40.8790 ca         1 S78      -0.118000
     25 C32         15.1910    44.3020    40.5000 ca         1 S78      -0.065000
     26 C33         16.3990    43.8190    39.9630 ca         1 S78      -0.210000
     27 C34         22.9030    41.2520    40.5200 c6         1 S78       0.092000
     28 N08         23.2850    39.9570    41.0400 n          1 S78      -0.406800
     29 N14         20.1650    40.6070    39.4660 ny         1 S78      -0.827000
     30 N22         13.5660    41.0320    40.9940 na         1 S78      -0.075700
     31 O05         23.4880    37.7620    40.9080 os         1 S78      -0.451100
     32 O07         22.5270    38.8760    39.1920 o          1 S78      -0.621000
     33 O17         17.7030    41.8950    39.2700 os         1 S78      -0.378100
     34 H1          24.0000    41.9880    42.8800 hc         1 S78       0.069700
     35 H2          23.3100    41.1010    44.2100 hc         1 S78       0.069700
     36 H3          19.5220    41.2920    41.3450 hx         1 S78       0.097700
     37 H4          20.5390    39.8680    41.3600 hx         1 S78       0.097700
     38 H5          19.7350    41.4040    37.5990 hx         1 S78       0.104700
     39 H6          20.8870    42.3550    38.5320 hx         1 S78       0.104700
     40 H7          16.1760    39.4290    39.8210 ha         1 S78       0.196000
     41 H8          13.7350    38.9180    40.8270 h4         1 S78       0.222000
     42 H9          13.9100    41.3100    45.9280 ha         1 S78       0.119500
     43 H10         10.5210    43.7570    45.0040 ha         1 S78       0.119500
     44 H11         21.2600    36.3230    41.1820 hc         1 S78       0.055256
     45 H12         21.3200    36.6690    39.4460 hc         1 S78       0.055256
     46 H13         21.6680    35.0490    40.0360 hc         1 S78       0.055256
     47 H14         23.3760    35.6690    42.4270 hc         1 S78       0.055256
     48 H15         23.7970    34.4890    41.1860 hc         1 S78       0.055256
     49 H16         24.9460    35.7560    41.6130 hc         1 S78       0.055256
     50 H17         25.0750    36.5010    39.1830 hc         1 S78       0.055256
     51 H18         23.9940    35.1630    38.8070 hc         1 S78       0.055256
     52 H19         23.5910    36.7860    38.2600 hc         1 S78       0.055256
     53 H20         22.9970    39.1150    42.9410 h1         1 S78       0.066200
     54 H21         24.6440    39.6600    42.6350 h1         1 S78       0.066200
     55 H22         21.6940    42.7260    43.1550 hc         1 S78       0.060200
     56 H23         21.1110    41.0840    43.2310 hc         1 S78       0.060200
     57 H24         21.4320    42.7570    40.8780 hc         1 S78       0.073700
     58 H25         19.1300    43.1960    40.0190 h1         1 S78       0.068700
     59 H26         18.6940    43.4700    38.3310 h1         1 S78       0.068700
     60 H27         11.6240    41.7730    40.9450 h1         1 S78       0.070700
     61 H28         11.8020    40.1360    41.5380 h1         1 S78       0.070700
     62 H29         13.9530    40.4870    43.6150 ha         1 S78       0.113500
     63 H30         12.1960    42.9500    46.6400 ha         1 S78       0.122000
     64 H31         10.5680    42.9380    42.6820 ha         1 S78       0.113500
     65 H32         13.2460    43.8500    41.2940 ha         1 S78       0.135000
     66 H33         15.0720    45.3710    40.6170 ha         1 S78       0.123000
     67 H34         17.1600    44.5340    39.6820 ha         1 S78       0.111000
     68 H35         22.8110    41.2030    39.4380 h1         1 S78       0.075200
     69 H36         23.7050    41.9680    40.7050 h1         1 S78       0.075200
     70 H37         19.3400    40.0090    39.3960 hn         1 S78       0.526000
     71 H38         20.9420    40.0330    39.0970 hn         1 S78       0.526000
     72 C23         12.2470    41.1310    41.5710 c3         1 S78       0.121900
@<TRIPOS>BOND
     1     1    14 1   
     2     1    15 1   
     3     1    34 1   
     4     1    35 1   
     5     2    16 1   
     6     2    29 1   
     7     2    36 1   
     8     2    37 1   
     9     3    17 1   
    10     3    29 1   
    11     3    38 1   
    12     3    39 1   
    13     4     5 2   
    14     4    19 1   
    15     4    40 1   
    16     5    30 1   
    17     5    41 1   
    18     6    20 ar  
    19     6    22 ar  
    20     6    72 1   
    21     7    20 ar  
    22     7    21 ar  
    23     7    42 1   
    24     8    21 ar  
    25     8    22 ar  
    26     8    43 1   
    27     9    10 1   
    28     9    44 1   
    29     9    45 1   
    30     9    46 1   
    31    10    11 1   
    32    10    12 1   
    33    10    31 1   
    34    11    47 1   
    35    11    48 1   
    36    11    49 1   
    37    12    50 1   
    38    12    51 1   
    39    12    52 1   
    40    13    28 1   
    41    13    31 1   
    42    13    32 2   
    43    14    28 1   
    44    14    53 1   
    45    14    54 1   
    46    15    16 1   
    47    15    55 1   
    48    15    56 1   
    49    16    27 1   
    50    16    57 1   
    51    17    33 1   
    52    17    58 1   
    53    17    59 1   
    54    18    19 ar  
    55    18    26 ar  
    56    18    33 1   
    57    19    23 ar  
    58    20    62 1   
    59    21    63 1   
    60    22    64 1   
    61    23    24 ar  
    62    23    30 1   
    63    24    25 ar  
    64    24    65 1   
    65    25    26 ar  
    66    25    66 1   
    67    26    67 1   
    68    27    28 1   
    69    27    68 1   
    70    27    69 1   
    71    29    70 1   
    72    29    71 1   
    73    30    72 1   
    74    60    72 1   
    75    61    72 1   
@<TRIPOS>SUBSTRUCTURE
     1 S78         1 TEMP              0 ****  ****    0 ROOT
