@<TRIPOS>MOLECULE
S78
   72    75     1     0     0
SMALL
No Charge or Current Charge


@<TRIPOS>ATOM
      1 C10         24.1690    41.3080    42.8840 c6         1 S78      -0.100400
      2 C13         20.9640    41.3460    41.2450 c3         1 S78       0.097600
      3 C15         20.0930    41.9260    38.8370 c3         1 S78       0.098600
      4 C20         15.5030    40.0940    40.1570 cc         1 S78      -0.246200
      5 C21         14.2340    39.6890    40.5540 cd         1 S78      -0.145100
      6 C24         11.9480    41.3970    42.8200 ca         1 S78      -0.124300
      7 C26         12.7220    41.4550    45.1370 ca         1 S78      -0.106000
      8 C28         10.7230    42.6830    44.4980 ca         1 S78      -0.106000
      9 C01         21.3100    36.2980    40.4790 c3         1 S78      -0.111767
     10 C02         22.8590    36.3500    40.4420 c3         1 S78       0.221000
     11 C03         23.4440    35.3830    41.4940 c3         1 S78      -0.111767
     12 C04         23.4460    36.0290    39.0440 c3         1 S78      -0.111767
     13 C06         23.0000    38.8070    40.1960 c          1 S78       0.663100
     14 C09         23.9770    39.8970    42.2620 c6         1 S78       0.111000
     15 C11         22.9480    42.2450    42.6220 c6         1 S78      -0.071400
     16 C12         22.3370    42.0750    41.1910 c6         1 S78      -0.107700
     17 C16         18.9040    42.8180    39.2470 c3         1 S78       0.141600
     18 C18         16.5800    42.4290    39.9750 ca         1 S78       0.148100
     19 C19         15.5420    41.5260    40.2520 ca         1 S78      -0.123800
     20 C25         12.8710    41.0060    43.8130 ca         1 S78      -0.095500
     21 C27         11.6490    42.2950    45.4800 ca         1 S78      -0.094000
     22 C29         10.8710    42.2350    43.1740 ca         1 S78      -0.095500
     23 C30         14.3150    41.9360    40.6960 ca         1 S78      -0.015200
     24 C31         14.0340    43.2970    40.8970 ca         1 S78      -0.118000
     25 C32         15.0520    44.2360    40.6280 ca         1 S78      -0.065000
     26 C33         16.3210    43.8080    40.1680 ca         1 S78      -0.210000
     27 C34         23.3210    41.3040    40.2840 c6         1 S78       0.092000
     28 N08         23.5110    39.9410    40.8440 n          1 S78      -0.406800
     29 N14         20.4090    40.8670    39.9020 ny         1 S78      -0.827000
     30 N22         13.4850    40.8390    40.8940 na         1 S78      -0.075700
     31 O05         23.3110    37.6550    40.8720 os         1 S78      -0.451100
     32 O07         22.3210    38.8880    39.1810 o          1 S78      -0.621000
     33 O17         17.7940    41.9450    39.5350 os         1 S78      -0.378100
     34 H1          25.0750    41.7630    42.4610 hc         1 S78       0.069700
     35 H2          24.3550    41.2200    43.9630 hc         1 S78       0.069700
     36 H3          20.2220    42.0010    41.7110 hx         1 S78       0.097700
     37 H4          21.0640    40.4670    41.8890 hx         1 S78       0.097700
     38 H5          19.8430    41.4240    37.8980 hx         1 S78       0.104700
     39 H6          20.9760    42.5500    38.6690 hx         1 S78       0.104700
     40 H7          16.3070    39.4360    39.8340 ha         1 S78       0.196000
     41 H8          13.8150    38.6880    40.6210 h4         1 S78       0.222000
     42 H9          13.4390    41.1520    45.8970 ha         1 S78       0.119500
     43 H10          9.8910    43.3310    44.7620 ha         1 S78       0.119500
     44 H11         20.9290    36.7030    41.4250 hc         1 S78       0.055256
     45 H12         20.8600    36.8620    39.6550 hc         1 S78       0.055256
     46 H13         20.9610    35.2620    40.3900 hc         1 S78       0.055256
     47 H14         23.0720    35.6260    42.4970 hc         1 S78       0.055256
     48 H15         23.1640    34.3460    41.2710 hc         1 S78       0.055256
     49 H16         24.5390    35.4420    41.5130 hc         1 S78       0.055256
     50 H17         24.5220    36.2410    39.0160 hc         1 S78       0.055256
     51 H18         23.3040    34.9690    38.8050 hc         1 S78       0.055256
     52 H19         22.9590    36.6080    38.2520 hc         1 S78       0.055256
     53 H20         23.2340    39.3490    42.8590 h1         1 S78       0.066200
     54 H21         24.9210    39.3360    42.3190 h1         1 S78       0.066200
     55 H22         23.2650    43.2870    42.7650 hc         1 S78       0.060200
     56 H23         22.1770    42.0650    43.3850 hc         1 S78       0.060200
     57 H24         22.1510    43.0660    40.7550 hc         1 S78       0.073700
     58 H25         19.1810    43.4040    40.1330 h1         1 S78       0.068700
     59 H26         18.6640    43.5090    38.4290 h1         1 S78       0.068700
     60 H27         11.5420    41.5930    40.7060 h1         1 S78       0.070700
     61 H28         11.6370    39.9260    41.2830 h1         1 S78       0.070700
     62 H29         13.7050    40.3540    43.5640 ha         1 S78       0.113500
     63 H30         11.5350    42.6420    46.5050 ha         1 S78       0.122000
     64 H31         10.1470    42.5420    42.4220 ha         1 S78       0.113500
     65 H32         13.0610    43.6260    41.2540 ha         1 S78       0.135000
     66 H33         14.8600    45.2970    40.7760 ha         1 S78       0.123000
     67 H34         17.0820    44.5570    39.9710 ha         1 S78       0.111000
     68 H35         22.9420    41.2630    39.2530 h1         1 S78       0.075200
     69 H36         24.2870    41.8260    40.2350 h1         1 S78       0.075200
     70 H37         19.5360    40.3200    40.0700 hn         1 S78       0.526000
     71 H38         21.0520    40.1390    39.4960 hn         1 S78       0.526000
     72 C23         12.0930    40.9190    41.3740 c3         1 S78       0.121900
@<TRIPOS>BOND
     1     1    14 1   
     2     1    15 1   
     3     1    34 1   
     4     1    35 1   
     5     2    16 1   
     6     2    29 1   
     7     2    36 1   
     8     2    37 1   
     9     3    17 1   
    10     3    29 1   
    11     3    38 1   
    12     3    39 1   
    13     4     5 2   
    14     4    19 1   
    15     4    40 1   
    16     5    30 1   
    17     5    41 1   
    18     6    20 ar  
    19     6    22 ar  
    20     6    72 1   
    21     7    20 ar  
    22     7    21 ar  
    23     7    42 1   
    24     8    21 ar  
    25     8    22 ar  
    26     8    43 1   
    27     9    10 1   
    28     9    44 1   
    29     9    45 1   
    30     9    46 1   
    31    10    11 1   
    32    10    12 1   
    33    10    31 1   
    34    11    47 1   
    35    11    48 1   
    36    11    49 1   
    37    12    50 1   
    38    12    51 1   
    39    12    52 1   
    40    13    28 1   
    41    13    31 1   
    42    13    32 2   
    43    14    28 1   
    44    14    53 1   
    45    14    54 1   
    46    15    16 1   
    47    15    55 1   
    48    15    56 1   
    49    16    27 1   
    50    16    57 1   
    51    17    33 1   
    52    17    58 1   
    53    17    59 1   
    54    18    19 ar  
    55    18    26 ar  
    56    18    33 1   
    57    19    23 ar  
    58    20    62 1   
    59    21    63 1   
    60    22    64 1   
    61    23    24 ar  
    62    23    30 1   
    63    24    25 ar  
    64    24    65 1   
    65    25    26 ar  
    66    25    66 1   
    67    26    67 1   
    68    27    28 1   
    69    27    68 1   
    70    27    69 1   
    71    29    70 1   
    72    29    71 1   
    73    30    72 1   
    74    60    72 1   
    75    61    72 1   
@<TRIPOS>SUBSTRUCTURE
     1 S78         1 TEMP              0 ****  ****    0 ROOT
