@<TRIPOS>MOLECULE
S79
   43    47     1     0     0
SMALL
No Charge or Current Charge


@<TRIPOS>ATOM
      1 N1          -7.3730    -0.1020     1.6320 nv         1 S79      -1.036200
      2 C8          -6.2440     0.0650     0.9660 cc         1 S79       0.710800
      3 N2          -5.1950    -0.5580     1.4400 nd         1 S79      -0.709100
      4 C4          -4.0340    -0.3410     0.6790 ca         1 S79       0.227400
      5 C5          -2.8460    -0.9730     1.1050 ca         1 S79      -0.136000
      6 C6          -1.6820    -0.7680     0.3570 ca         1 S79      -0.034200
      7 N3          -0.4220    -1.2470     0.5400 na         1 S79      -0.361600
      8 C9           0.3360    -0.7290    -0.4880 cc         1 S79       0.656700
      9 N4           1.6500    -0.9660    -0.6690 nu         1 S79      -0.894400
     10 C17          2.5680    -1.5890     0.2840 c3         1 S79       0.272100
     11 C18          4.0090    -1.2130    -0.0510 ca         1 S79      -0.103300
     12 C20          4.5670     0.0520     0.2830 ca         1 S79      -0.016000
     13 C26          3.8100     1.0530     0.9390 ca         1 S79      -0.097000
     14 C25          4.3890     2.2930     1.2580 ca         1 S79      -0.102000
     15 C24          5.7260     2.5550     0.9280 ca         1 S79      -0.104000
     16 C23          6.4890     1.5750     0.2740 ca         1 S79      -0.099000
     17 C21          5.9170     0.3290    -0.0500 ca         1 S79      -0.042000
     18 C22          6.6980    -0.6380    -0.7090 ca         1 S79      -0.081000
     19 C27          6.1430    -1.8810    -1.0420 ca         1 S79      -0.115000
     20 C19          4.8090    -2.1660    -0.7150 ca         1 S79      -0.088000
     21 N5          -0.3620     0.0470    -1.3150 nd         1 S79      -0.638100
     22 C1          -1.6440     0.0130    -0.7620 ca         1 S79       0.071400
     23 C2          -2.8040     0.6560    -1.2150 ca         1 S79       0.015000
     24 C3          -4.0050     0.4720    -0.4840 ca         1 S79      -0.238600
     25 C7          -5.2610     1.1290    -0.9130 c          1 S79       0.592600
     26 O1          -5.3550     1.8560    -1.8890 o          1 S79      -0.543000
     27 N6          -6.3160     0.8540    -0.1200 ns         1 S79      -0.454400
     28 HN11        -8.2290    -0.0630     1.0950 hn         1 S79       0.488500
     29 HN12        -7.3320    -0.8360     2.3290 hn         1 S79       0.488500
     30 H5          -2.8380    -1.6020     1.9910 ha         1 S79       0.132000
     31 HN3         -0.0940    -1.8670     1.2630 hn         1 S79       0.355000
     32 HN4          2.0460    -0.4240    -1.4320 hn         1 S79       0.513000
     33 H171         2.3320    -1.2800     1.3110 h1         1 S79       0.041200
     34 H172         2.4520    -2.6800     0.2430 h1         1 S79       0.041200
     35 H26          2.7700     0.8890     1.2060 ha         1 S79       0.122000
     36 H25          3.7960     3.0540     1.7630 ha         1 S79       0.116000
     37 H24          6.1720     3.5160     1.1760 ha         1 S79       0.116000
     38 H23          7.5250     1.7850     0.0180 ha         1 S79       0.114000
     39 H22          7.7330    -0.4260    -0.9650 ha         1 S79       0.116000
     40 H27          6.7490    -2.6270    -1.5530 ha         1 S79       0.118000
     41 H19          4.3940    -3.1360    -0.9810 ha         1 S79       0.113000
     42 H2          -2.7710     1.2780    -2.1070 ha         1 S79       0.148000
     43 HN6         -7.1880     1.2950    -0.3560 hn         1 S79       0.323500
@<TRIPOS>BOND
     1     1     2 1   
     2     1    28 1   
     3     1    29 1   
     4     2     3 2   
     5     2    27 1   
     6     3     4 1   
     7     4     5 ar  
     8     4    24 ar  
     9     5     6 ar  
    10     5    30 1   
    11     6     7 1   
    12     6    22 ar  
    13     7     8 1   
    14     7    31 1   
    15     8     9 1   
    16     8    21 2   
    17     9    10 1   
    18     9    32 1   
    19    10    11 1   
    20    10    33 1   
    21    10    34 1   
    22    11    12 ar  
    23    11    20 ar  
    24    12    13 ar  
    25    12    17 ar  
    26    13    14 ar  
    27    13    35 1   
    28    14    15 ar  
    29    14    36 1   
    30    15    16 ar  
    31    15    37 1   
    32    16    17 ar  
    33    16    38 1   
    34    17    18 ar  
    35    18    19 ar  
    36    18    39 1   
    37    19    20 ar  
    38    19    40 1   
    39    20    41 1   
    40    21    22 1   
    41    22    23 ar  
    42    23    24 ar  
    43    23    42 1   
    44    24    25 1   
    45    25    26 2   
    46    25    27 1   
    47    27    43 1   
@<TRIPOS>SUBSTRUCTURE
     1 S79         1 TEMP              0 ****  ****    0 ROOT
