@<TRIPOS>MOLECULE
S79
   43    47     1     0     0
SMALL
abcg2


@<TRIPOS>ATOM
      1 N1          -7.3680    -0.2560     1.7540 nv         1 S79      -1.036200
      2 C8          -6.2450    -0.1080     1.0190 cc         1 S79       0.710800
      3 N2          -5.1050    -0.5280     1.4580 nd         1 S79      -0.709100
      4 C4          -3.9940    -0.2980     0.6870 ca         1 S79       0.227400
      5 C5          -2.7560    -0.7520     1.1650 ca         1 S79      -0.136000
      6 C6          -1.6500    -0.5220     0.3790 ca         1 S79      -0.034200
      7 N3          -0.3260    -0.8340     0.5470 na         1 S79      -0.361600
      8 C9           0.3430    -0.3670    -0.5530 cc         1 S79       0.656700
      9 N4           1.6790    -0.4820    -0.6800 nu         1 S79      -0.894400
     10 C17          2.4800    -1.3770     0.1340 c3         1 S79       0.272100
     11 C18          3.9440    -1.1530    -0.1280 ca         1 S79      -0.103300
     12 C20          4.5870     0.0490     0.2900 ca         1 S79      -0.016000
     13 C26          3.9050     1.0840     0.9750 ca         1 S79      -0.097000
     14 C25          4.5620     2.2180     1.3690 ca         1 S79      -0.102000
     15 C24          5.9360     2.3820     1.0980 ca         1 S79      -0.104000
     16 C23          6.6220     1.4010     0.4380 ca         1 S79      -0.099000
     17 C21          5.9720     0.2160     0.0210 ca         1 S79      -0.042000
     18 C22          6.6790    -0.8060    -0.6570 ca         1 S79      -0.081000
     19 C27          6.0420    -1.9480    -1.0480 ca         1 S79      -0.115000
     20 C19          4.6680    -2.1150    -0.7810 ca         1 S79      -0.088000
     21 N5          -0.4420     0.2150    -1.4240 nd         1 S79      -0.638100
     22 C1          -1.7010     0.1400    -0.8720 ca         1 S79       0.071400
     23 C2          -2.9150     0.5890    -1.3420 ca         1 S79       0.015000
     24 C3          -4.0560     0.3670    -0.5600 ca         1 S79      -0.238600
     25 C7          -5.3500     0.8270    -1.0330 c          1 S79       0.592600
     26 O1          -5.5550     1.4160    -2.0830 o          1 S79      -0.543000
     27 N6          -6.3900     0.5460    -0.1760 ns         1 S79      -0.454400
     28 HN11        -8.2660    -0.2260     1.3010 hn         1 S79       0.488500
     29 HN12        -7.3060    -0.8880     2.5350 hn         1 S79       0.488500
     30 H5          -2.6970    -1.2630     2.1170 ha         1 S79       0.132000
     31 HN3          0.0710    -1.3040     1.3440 hn         1 S79       0.355000
     32 HN4          2.0300    -0.2700    -1.6000 hn         1 S79       0.513000
     33 H171         2.2690    -1.1940     1.1910 h1         1 S79       0.041200
     34 H172         2.2340    -2.4260    -0.0610 h1         1 S79       0.041200
     35 H26          2.8490     0.9860     1.1870 ha         1 S79       0.122000
     36 H25          4.0240     2.9980     1.8920 ha         1 S79       0.116000
     37 H24          6.4420     3.2840     1.4140 ha         1 S79       0.116000
     38 H23          7.6780     1.5190     0.2250 ha         1 S79       0.114000
     39 H22          7.7340    -0.6680    -0.8590 ha         1 S79       0.116000
     40 H27          6.5820    -2.7290    -1.5660 ha         1 S79       0.118000
     41 H19          4.1760    -3.0260    -1.1000 ha         1 S79       0.113000
     42 H2          -2.9920     1.0990    -2.2930 ha         1 S79       0.148000
     43 HN6         -7.3090     0.8600    -0.4600 hn         1 S79       0.323500
@<TRIPOS>BOND
     1     1     2 1   
     2     1    28 1   
     3     1    29 1   
     4     2     3 2   
     5     2    27 1   
     6     3     4 1   
     7     4     5 ar  
     8     4    24 ar  
     9     5     6 ar  
    10     5    30 1   
    11     6     7 1   
    12     6    22 ar  
    13     7     8 1   
    14     7    31 1   
    15     8     9 1   
    16     8    21 2   
    17     9    10 1   
    18     9    32 1   
    19    10    11 1   
    20    10    33 1   
    21    10    34 1   
    22    11    12 ar  
    23    11    20 ar  
    24    12    13 ar  
    25    12    17 ar  
    26    13    14 ar  
    27    13    35 1   
    28    14    15 ar  
    29    14    36 1   
    30    15    16 ar  
    31    15    37 1   
    32    16    17 ar  
    33    16    38 1   
    34    17    18 ar  
    35    18    19 ar  
    36    18    39 1   
    37    19    20 ar  
    38    19    40 1   
    39    20    41 1   
    40    21    22 1   
    41    22    23 ar  
    42    23    24 ar  
    43    23    42 1   
    44    24    25 1   
    45    25    26 2   
    46    25    27 1   
    47    27    43 1   
@<TRIPOS>SUBSTRUCTURE
     1 S79         1 TEMP              0 ****  ****    0 ROOT
