@<TRIPOS>MOLECULE
S7A
   24    24     1     0     0
SMALL
No Charge or Current Charge


@<TRIPOS>ATOM
      1 N1          38.6190    -0.4640    75.0110 n7         1 S7A      -0.842400
      2 C4          40.0170     0.0390    74.9000 c6         1 S7A       0.130300
      3 C5          37.6620     0.3880    74.2500 c6         1 S7A       0.130300
      4 C6          37.7620     1.8840    74.6660 c6         1 S7A       0.057500
      5 N           39.1670     2.3860    74.5640 n          1 S7A      -0.409800
      6 C           39.0700     5.4160    72.1110 c3         1 S7A       0.322000
      7 O           40.7960     3.5450    73.4440 o          1 S7A      -0.579100
      8 C1          38.5460     4.2260    72.9330 c3         1 S7A      -0.245400
      9 C2          39.6020     3.3700    73.6410 c          1 S7A       0.619100
     10 C3          40.1270     1.5310    75.3230 c6         1 S7A       0.057500
     11 F           38.0360     6.1020    71.5750 f          1 S7A      -0.110000
     12 F1          39.7760     6.2740    72.8810 f          1 S7A      -0.110000
     13 F2          39.8590     5.0050    71.0920 f          1 S7A      -0.110000
     14 H1          38.3490    -0.4420    76.0040 hn         1 S7A       0.407000
     15 H3          40.6860    -0.5710    75.5250 h1         1 S7A       0.063950
     16 H4          40.3610    -0.0620    73.8590 h1         1 S7A       0.063950
     17 H5          37.8740     0.3030    73.1730 h1         1 S7A       0.063950
     18 H6          36.6330     0.0300    74.4100 h1         1 S7A       0.063950
     19 H7          37.0660     2.4660    74.0500 h1         1 S7A       0.059200
     20 H8          37.4260     1.9900    75.7070 h1         1 S7A       0.059200
     21 H9          37.8170     4.5550    73.6810 hc         1 S7A       0.093700
     22 H10         37.9420     3.5600    72.3080 hc         1 S7A       0.093700
     23 H11         41.1620     1.8710    75.1800 h1         1 S7A       0.059200
     24 H12         39.9080     1.6190    76.3960 h1         1 S7A       0.059200
@<TRIPOS>BOND
     1     1     2 1   
     2     1     3 1   
     3     1    14 1   
     4     2    10 1   
     5     2    15 1   
     6     2    16 1   
     7     3     4 1   
     8     3    17 1   
     9     3    18 1   
    10     4     5 1   
    11     4    19 1   
    12     4    20 1   
    13     5     9 1   
    14     5    10 1   
    15     6     8 1   
    16     6    11 1   
    17     6    12 1   
    18     6    13 1   
    19     7     9 2   
    20     8     9 1   
    21     8    21 1   
    22     8    22 1   
    23    10    23 1   
    24    10    24 1   
@<TRIPOS>SUBSTRUCTURE
     1 S7A         1 TEMP              0 ****  ****    0 ROOT
