@<TRIPOS>MOLECULE
S7A
   24    24     1     0     0
SMALL
bcc


@<TRIPOS>ATOM
      1 N1          38.6180    -0.4170    74.9420 n7         1 S7A      -0.787200
      2 C4          39.9770     0.0870    74.8460 c6         1 S7A       0.130300
      3 C5          37.6820     0.4550    74.2560 c6         1 S7A       0.130300
      4 C6          37.7980     1.9200    74.6700 c6         1 S7A       0.057500
      5 N           39.1730     2.3700    74.5250 n          1 S7A      -0.476800
      6 C           39.0690     5.2770    72.1600 c3         1 S7A       0.685900
      7 O           40.7780     3.6820    73.6300 o          1 S7A      -0.579100
      8 C1          38.5230     4.1410    72.9860 c3         1 S7A      -0.245400
      9 C2          39.5990     3.3760    73.7420 c          1 S7A       0.686100
     10 C3          40.1190     1.5470    75.2650 c6         1 S7A       0.057500
     11 F           38.0650     5.9070    71.5250 f          1 S7A      -0.231300
     12 F1          39.6950     6.2050    72.8930 f          1 S7A      -0.231300
     13 F2          39.9220     4.8740    71.2130 f          1 S7A      -0.231300
     14 H1          38.3540    -0.4860    75.9190 hn         1 S7A       0.351800
     15 H3          40.6330    -0.5310    75.4610 h1         1 S7A       0.063950
     16 H4          40.3140    -0.0180    73.8100 h1         1 S7A       0.063950
     17 H5          37.8560     0.3770    73.1780 h1         1 S7A       0.063950
     18 H6          36.6640     0.1100    74.4440 h1         1 S7A       0.063950
     19 H7          37.1150     2.5280    74.0830 h1         1 S7A       0.059200
     20 H8          37.5030     2.0310    75.7190 h1         1 S7A       0.059200
     21 H9          37.7850     4.5560    73.6780 hc         1 S7A       0.093700
     22 H10         37.9780     3.4730    72.3140 hc         1 S7A       0.093700
     23 H11         41.1310     1.9040    75.0890 h1         1 S7A       0.059200
     24 H12         39.9110     1.6520    76.3360 h1         1 S7A       0.059200
@<TRIPOS>BOND
     1     1     2 1   
     2     1     3 1   
     3     1    14 1   
     4     2    10 1   
     5     2    15 1   
     6     2    16 1   
     7     3     4 1   
     8     3    17 1   
     9     3    18 1   
    10     4     5 1   
    11     4    19 1   
    12     4    20 1   
    13     5     9 1   
    14     5    10 1   
    15     6     8 1   
    16     6    11 1   
    17     6    12 1   
    18     6    13 1   
    19     7     9 2   
    20     8     9 1   
    21     8    21 1   
    22     8    22 1   
    23    10    23 1   
    24    10    24 1   
@<TRIPOS>SUBSTRUCTURE
     1 S7A         1 TEMP              0 ****  ****    0 ROOT
