@<TRIPOS>MOLECULE
S7B
   27    28     1     0     0
SMALL
No Charge or Current Charge


@<TRIPOS>ATOM
      1 C1          -1.6540     0.5060     0.1660 ca         1 S7B      -0.129600
      2 C16         -2.9680     0.0400    -0.0500 ca         1 S7B      -0.082000
      3 C15         -3.2120    -1.3240    -0.2730 ca         1 S7B      -0.143000
      4 C14         -2.1500    -2.2400    -0.2730 ca         1 S7B      -0.129000
      5 C12         -0.8320    -1.7990    -0.0490 ca         1 S7B      -0.109300
      6 C13          0.3070    -2.8140    -0.0250 c3         1 S7B      -0.029800
      7 C5          -0.5870    -0.4210     0.1590 ca         1 S7B       0.124100
      8 O6           0.6950     0.0080     0.4040 os         1 S7B      -0.343200
      9 C7           1.6080     0.2110    -0.5940 c          1 S7B       0.672100
     10 O11          1.3830     0.0380    -1.7860 o          1 S7B      -0.495000
     11 C8           2.9520     0.6490    -0.0570 cx         1 S7B      -0.177700
     12 C10          4.2000    -0.0780    -0.5220 cx         1 S7B      -0.113900
     13 C9           3.6960    -0.2750     0.8880 cx         1 S7B      -0.113900
     14 C2          -1.4180     1.9760     0.4100 c          1 S7B       0.723600
     15 O4          -2.1500     2.5460     1.2080 o          1 S7B      -0.715500
     16 O3          -0.5680     2.5560    -0.2520 o          1 S7B      -0.715500
     17 H16         -3.8010     0.7410    -0.0470 ha         1 S7B       0.130000
     18 H15         -4.2290    -1.6720    -0.4420 ha         1 S7B       0.088000
     19 H14         -2.3540    -3.2950    -0.4400 ha         1 S7B       0.085000
     20 H13          0.9350    -2.7230    -0.9190 hc         1 S7B       0.029033
     21 H13A         0.9480    -2.6720     0.8530 hc         1 S7B       0.029033
     22 H13B        -0.0680    -3.8440     0.0100 hc         1 S7B       0.029033
     23 H8           3.0410     1.7160     0.1240 hc         1 S7B       0.099700
     24 H10          4.0830    -0.9040    -1.2200 hc         1 S7B       0.072450
     25 H10A         5.1060     0.5080    -0.6600 hc         1 S7B       0.072450
     26 H9           4.2640     0.1790     1.6970 hc         1 S7B       0.072450
     27 H9A          3.2430    -1.2330     1.1330 hc         1 S7B       0.072450
@<TRIPOS>BOND
     1     1     2 ar  
     2     1     7 ar  
     3     1    14 1   
     4     2     3 ar  
     5     2    17 1   
     6     3     4 ar  
     7     3    18 1   
     8     4     5 ar  
     9     4    19 1   
    10     5     6 1   
    11     5     7 ar  
    12     6    20 1   
    13     6    21 1   
    14     6    22 1   
    15     7     8 1   
    16     8     9 1   
    17     9    10 2   
    18     9    11 1   
    19    11    12 1   
    20    11    13 1   
    21    11    23 1   
    22    12    13 1   
    23    12    24 1   
    24    12    25 1   
    25    13    26 1   
    26    13    27 1   
    27    14    15 1   
    28    14    16 1   
@<TRIPOS>SUBSTRUCTURE
     1 S7B         1 TEMP              0 ****  ****    0 ROOT
