@<TRIPOS>MOLECULE
S7B
   27    28     1     0     0
SMALL
bcc


@<TRIPOS>ATOM
      1 C1          -1.4110     0.4420    -0.0860 ca         1 S7B      -0.129600
      2 C16         -2.7310     0.1510    -0.4280 ca         1 S7B      -0.100000
      3 C15         -3.2070    -1.1490    -0.4230 ca         1 S7B      -0.161000
      4 C14         -2.3700    -2.1900    -0.0470 ca         1 S7B      -0.147000
      5 C12         -1.0500    -1.9470     0.3180 ca         1 S7B      -0.109300
      6 C13         -0.1400    -3.0660     0.7310 c3         1 S7B      -0.029800
      7 C5          -0.6010    -0.6280     0.2880 ca         1 S7B       0.124100
      8 O6           0.6880    -0.3950     0.7210 os         1 S7B      -0.343200
      9 C7           1.6370    -0.2320    -0.2150 c          1 S7B       0.721100
     10 O11          1.4740    -0.5160    -1.3730 o          1 S7B      -0.544000
     11 C8           2.9010     0.2350     0.3840 cx         1 S7B      -0.177700
     12 C10          3.8260     1.0420    -0.4850 cx         1 S7B      -0.113900
     13 C9           4.1840    -0.3570    -0.1500 cx         1 S7B      -0.113900
     14 C2          -0.9320     1.8930    -0.1340 c          1 S7B       0.934200
     15 O4          -1.8270     2.7580    -0.1070 o          1 S7B      -0.820800
     16 O3           0.2940     2.0930    -0.2150 o          1 S7B      -0.820800
     17 H16         -3.3880     0.9650    -0.7060 ha         1 S7B       0.148000
     18 H15         -4.2320    -1.3550    -0.7030 ha         1 S7B       0.106000
     19 H14         -2.7410    -3.2080    -0.0370 ha         1 S7B       0.103000
     20 H13          0.7000    -3.1770     0.0420 hc         1 S7B       0.029033
     21 H13A         0.2790    -2.9090     1.7260 hc         1 S7B       0.029033
     22 H13B        -0.6790    -4.0120     0.7440 hc         1 S7B       0.029033
     23 H8           2.8690     0.4780     1.4370 hc         1 S7B       0.099700
     24 H10          3.4940     1.2630    -1.4900 hc         1 S7B       0.072450
     25 H10A         4.3640     1.8440     0.0030 hc         1 S7B       0.072450
     26 H9           4.9700    -0.5340     0.5720 hc         1 S7B       0.072450
     27 H9A          4.1000    -1.1080    -0.9240 hc         1 S7B       0.072450
@<TRIPOS>BOND
     1     1     2 ar  
     2     1     7 ar  
     3     1    14 1   
     4     2     3 ar  
     5     2    17 1   
     6     3     4 ar  
     7     3    18 1   
     8     4     5 ar  
     9     4    19 1   
    10     5     6 1   
    11     5     7 ar  
    12     6    20 1   
    13     6    21 1   
    14     6    22 1   
    15     7     8 1   
    16     8     9 1   
    17     9    10 2   
    18     9    11 1   
    19    11    12 1   
    20    11    13 1   
    21    11    23 1   
    22    12    13 1   
    23    12    24 1   
    24    12    25 1   
    25    13    26 1   
    26    13    27 1   
    27    14    15 1   
    28    14    16 1   
@<TRIPOS>SUBSTRUCTURE
     1 S7B         1 TEMP              0 ****  ****    0 ROOT
