@<TRIPOS>MOLECULE
S7D
   30    31     1     0     0
SMALL
abcg2


@<TRIPOS>ATOM
      1 N1           2.5810     0.4880     0.1420 na         1 S7D       0.136800
      2 C4          -2.6700     1.5340     0.8460 c6         1 S7D       0.140600
      3 C5           0.2590    -0.0920    -0.3400 c          1 S7D       0.590100
      4 C6           1.2480     1.0050     0.0590 c3         1 S7D       0.002600
      5 C7           3.4690     0.3680    -0.8610 cc         1 S7D      -0.157000
      6 C8           4.5670    -0.2770    -0.3430 cd         1 S7D      -0.226000
      7 N           -1.0340     0.2710    -0.4210 n          1 S7D      -0.416800
      8 C           -4.3140    -1.5890    -0.1110 c3         1 S7D      -0.088100
      9 O           -3.6740     0.6270     0.4600 os         1 S7D      -0.448000
     10 C1          -3.1680    -0.6840     0.2830 c6         1 S7D       0.149300
     11 C2          -2.0660    -0.6890    -0.7710 c6         1 S7D       0.060000
     12 C3          -1.5580     1.6050    -0.1860 c6         1 S7D       0.064000
     13 C9           4.2210    -0.5170     0.9980 cd         1 S7D       0.247900
     14 N2           3.0160    -0.0560     1.2760 nc         1 S7D      -0.521800
     15 O1           0.6580    -1.2210    -0.5720 o          1 S7D      -0.572100
     16 H2          -2.2420     1.2510     1.8180 h1         1 S7D       0.054200
     17 H3           0.9890     1.4300     1.0290 h1         1 S7D       0.080200
     18 H4           1.2290     1.8200    -0.6660 h1         1 S7D       0.080200
     19 H5           3.2660     0.7530    -1.8470 h4         1 S7D       0.150000
     20 H6           5.4800    -0.5330    -0.8520 ha         1 S7D       0.145000
     21 H7          -4.7580    -1.2780    -1.0590 hc         1 S7D       0.048033
     22 H8          -3.9610    -2.6140    -0.2250 hc         1 S7D       0.048033
     23 H9          -5.0930    -1.5880     0.6510 hc         1 S7D       0.048033
     24 H10         -2.7310    -1.0350     1.2310 h1         1 S7D       0.045700
     25 H11         -2.4870    -0.4240    -1.7480 h1         1 S7D       0.070200
     26 H12         -1.6310    -1.6820    -0.8530 h1         1 S7D       0.070200
     27 H13         -1.9420     2.0090    -1.1280 h1         1 S7D       0.054200
     28 H14         -0.7870     2.2850     0.1660 h1         1 S7D       0.054200
     29 H15          4.8100    -0.9970     1.7650 h4         1 S7D       0.036100
     30 H1          -3.1360     2.5150     0.9540 h1         1 S7D       0.054200
@<TRIPOS>BOND
     1     1     4 1   
     2     1     5 1   
     3     1    14 1   
     4     2     9 1   
     5     2    12 1   
     6     2    16 1   
     7     2    30 1   
     8     3     4 1   
     9     3     7 1   
    10     3    15 2   
    11     4    17 1   
    12     4    18 1   
    13     5     6 2   
    14     5    19 1   
    15     6    13 1   
    16     6    20 1   
    17     7    11 1   
    18     7    12 1   
    19     8    10 1   
    20     8    21 1   
    21     8    22 1   
    22     8    23 1   
    23     9    10 1   
    24    10    11 1   
    25    10    24 1   
    26    11    25 1   
    27    11    26 1   
    28    12    27 1   
    29    12    28 1   
    30    13    14 2   
    31    13    29 1   
@<TRIPOS>SUBSTRUCTURE
     1 S7D         1 TEMP              0 ****  ****    0 ROOT
