@<TRIPOS>MOLECULE
S7D
   30    31     1     0     0
SMALL
No Charge or Current Charge


@<TRIPOS>ATOM
      1 N1           2.7940     0.4100     0.0990 na         1 S7D       0.136800
      2 C4          -2.9510     1.6520     0.7190 c6         1 S7D       0.140600
      3 C5           0.3550    -0.2150    -0.1380 c          1 S7D       0.590100
      4 C6           1.3970     0.8500     0.2460 c3         1 S7D       0.002600
      5 C7           3.5050     0.3140    -1.0940 cc         1 S7D      -0.157000
      6 C8           4.7410    -0.1050    -0.6930 cd         1 S7D      -0.226000
      7 N           -1.0110     0.0790     0.0970 n          1 S7D      -0.416800
      8 C           -4.5680    -1.4760    -0.4730 c3         1 S7D      -0.088100
      9 O           -3.8240     0.7570     0.0080 os         1 S7D      -0.448000
     10 C1          -3.4870    -0.6210     0.2290 c6         1 S7D       0.149300
     11 C2          -2.0580    -0.9200    -0.3000 c6         1 S7D       0.060000
     12 C3          -1.4870     1.4970     0.2320 c6         1 S7D       0.064000
     13 C9           4.7130    -0.2320     0.7090 cd         1 S7D       0.247900
     14 N2           3.5370     0.0830     1.2180 nc         1 S7D      -0.521800
     15 O1           0.6800    -1.3070    -0.5920 o          1 S7D      -0.572100
     16 H2          -3.0120     1.4340     1.7950 h1         1 S7D       0.054200
     17 H3           1.2190     1.1380     1.2880 h1         1 S7D       0.080200
     18 H4           1.2370     1.7280    -0.3880 h1         1 S7D       0.080200
     19 H5           3.0870     0.5380    -2.0680 h4         1 S7D       0.150000
     20 H6           5.5940    -0.3030    -1.3340 ha         1 S7D       0.145000
     21 H7          -4.5860    -1.2890    -1.5540 hc         1 S7D       0.048033
     22 H8          -4.3830    -2.5460    -0.3210 hc         1 S7D       0.048033
     23 H9          -5.5650    -1.2530    -0.0750 hc         1 S7D       0.048033
     24 H10         -3.5260    -0.8260     1.3100 h1         1 S7D       0.045700
     25 H11         -2.0900    -0.9650    -1.3980 h1         1 S7D       0.070200
     26 H12         -1.7610    -1.9180     0.0520 h1         1 S7D       0.070200
     27 H13         -1.3910     1.9900    -0.7460 h1         1 S7D       0.054200
     28 H14         -0.8450     2.0450     0.9340 h1         1 S7D       0.054200
     29 H15          5.5150    -0.5400     1.3680 h4         1 S7D       0.036100
     30 H1          -3.2890     2.6870     0.5650 h1         1 S7D       0.054200
@<TRIPOS>BOND
     1     1     4 1   
     2     1     5 1   
     3     1    14 1   
     4     2     9 1   
     5     2    12 1   
     6     2    16 1   
     7     2    30 1   
     8     3     4 1   
     9     3     7 1   
    10     3    15 2   
    11     4    17 1   
    12     4    18 1   
    13     5     6 2   
    14     5    19 1   
    15     6    13 1   
    16     6    20 1   
    17     7    11 1   
    18     7    12 1   
    19     8    10 1   
    20     8    21 1   
    21     8    22 1   
    22     8    23 1   
    23     9    10 1   
    24    10    11 1   
    25    10    24 1   
    26    11    25 1   
    27    11    26 1   
    28    12    27 1   
    29    12    28 1   
    30    13    14 2   
    31    13    29 1   
@<TRIPOS>SUBSTRUCTURE
     1 S7D         1 TEMP              0 ****  ****    0 ROOT
