@<TRIPOS>MOLECULE
S7E
   75    78     1     0     0
SMALL
No Charge or Current Charge


@<TRIPOS>ATOM
      1 C18          4.3560     1.4420    19.2700 cc         1 S7E      -0.179000
      2 C21          0.4160    -0.2640    16.7200 cc         1 S7E      -0.183000
      3 C22         -1.7120    -1.9830    27.2120 c          1 S7E       0.537900
      4 C26         -1.8970     1.3320    27.4520 c          1 S7E       0.545600
      5 C27          1.5640     2.2710    27.0190 cc         1 S7E       0.366900
      6 C29          1.5060     2.5430    28.3520 cd         1 S7E      -0.220000
      7 C31         -0.4540     1.7860    27.5540 cd         1 S7E       0.349000
      8 C32          3.9090     2.8420    26.4350 c          1 S7E       0.549600
      9 C34          5.4220     2.5890    23.1660 cc         1 S7E       0.370900
     10 C35          6.5320     3.0550    23.8020 cd         1 S7E      -0.219000
     11 C37          4.7850     2.8360    25.1970 cd         1 S7E       0.346000
     12 C38          6.1890     2.3170    20.8340 c          1 S7E       0.653700
     13 C39          4.2300     1.1140    17.9110 cc         1 S7E      -0.018400
     14 C40          5.4300     1.3370    17.2950 cd         1 S7E      -0.177000
     15 C41          7.7110     2.1680    18.0360 c3         1 S7E       0.058900
     16 C42          5.6410     1.8740    19.5190 cd         1 S7E      -0.236600
     17 C43          2.8190     0.2920    16.0110 c          1 S7E       0.646700
     18 C44          1.4190    -0.1700    15.7780 cd         1 S7E      -0.232600
     19 C45         -0.7500    -0.7380    16.1070 cc         1 S7E       0.179000
     20 C46         -0.5040    -0.9480    14.7880 cd         1 S7E      -0.228000
     21 C49         -3.2690    -1.8930    27.0380 c3         1 S7E       0.053500
     22 C50         -3.6620    -1.1290    25.7420 c3         1 S7E      -0.082400
     23 C51         -3.5720     0.4180    25.7850 c3         1 S7E       0.097000
     24 N12         -2.2520     0.9270    26.1760 ns         1 S7E      -0.497900
     25 N13          0.2040     2.2310    28.7070 na         1 S7E      -0.101500
     26 N14          2.6270     2.4040    26.1710 ns         1 S7E      -0.438400
     27 N15          6.1300     3.2180    25.1170 na         1 S7E      -0.106500
     28 N16          5.2690     2.2620    21.8490 ns         1 S7E      -0.455400
     29 N17          6.3070     1.8060    18.2810 na         1 S7E       0.075000
     30 N19          3.0620     0.6450    17.3260 ns         1 S7E      -0.370100
     31 N20          0.8360    -0.6000    14.5700 na         1 S7E       0.080000
     32 N22         -1.9080    -0.9330    16.7890 nv         1 S7E      -1.018000
     33 N23         -4.0390    -1.3610    28.2140 n8         1 S7E      -0.993200
     34 N28          0.3970     1.8150    26.5160 nc         1 S7E      -0.713000
     35 N33          4.3580     2.4490    23.9850 nc         1 S7E      -0.712000
     36 O5          -2.7020     1.3010    28.3800 o          1 S7E      -0.617100
     37 O6           4.2740     3.1910    27.5540 o          1 S7E      -0.607100
     38 O7           7.3420     2.6910    20.9930 o          1 S7E      -0.609100
     39 O8           3.6630     0.3520    15.1270 o          1 S7E      -0.615100
     40 H1           3.5430     1.3540    19.9840 ha         1 S7E       0.132000
     41 H2           0.4800    -0.0190    17.7760 ha         1 S7E       0.130000
     42 H3          -1.1560    -2.3570    26.3240 h4         1 S7E      -0.012800
     43 H4           2.2520     2.9140    29.0430 h4         1 S7E       0.185000
     44 H8           7.5290     3.2730    23.4400 h4         1 S7E       0.187000
     45 H12          5.7340     1.2060    16.2640 h4         1 S7E       0.176000
     46 H13          8.3640     1.5390    18.6530 h1         1 S7E       0.061700
     47 H14          7.9570     2.0140    16.9790 h1         1 S7E       0.061700
     48 H15          7.8680     3.2220    18.2930 h1         1 S7E       0.061700
     49 H16         -1.1540    -1.3080    14.0010 h4         1 S7E       0.150000
     50 H20         -3.5820    -2.9370    26.8910 h1         1 S7E       0.070700
     51 H21         -4.6950    -1.3950    25.4830 hc         1 S7E       0.055200
     52 H22         -3.0450    -1.4950    24.9120 hc         1 S7E       0.055200
     53 H23         -4.3310     0.8100    26.4760 h1         1 S7E       0.064200
     54 H24         -3.8120     0.8150    24.7900 h1         1 S7E       0.064200
     55 H25         -1.5220     1.0070    25.4730 hn         1 S7E       0.341500
     56 H26          2.4760     2.1510    25.2030 hn         1 S7E       0.363500
     57 H27          4.3590     1.9330    21.5710 hn         1 S7E       0.341500
     58 H28          2.2550     0.5340    17.9220 hn         1 S7E       0.328500
     59 H29         -1.9870    -0.6440    17.7620 hn         1 S7E       0.423000
     60 H30         -2.7600    -1.1890    16.2930 hn         1 S7E       0.423000
     61 H31         -3.7530    -1.8670    29.0630 hn         1 S7E       0.415000
     62 H32         -3.7040    -0.4010    28.4030 hn         1 S7E       0.415000
     63 C36          6.9770     3.7060    26.2170 c3         1 S7E       0.060900
     64 C47          1.5120    -0.6800    13.2660 c3         1 S7E       0.060900
     65 C30         -0.3660     2.3450    30.0590 c3         1 S7E       0.061900
     66 O4          -1.1160    -1.6760    28.2420 o          1 S7E      -0.519100
     67 H5          -1.2120     3.0430    30.0460 h1         1 S7E       0.065367
     68 H6          -0.7130     1.3600    30.3970 h1         1 S7E       0.065367
     69 H7           0.3950     2.7160    30.7560 h1         1 S7E       0.065367
     70 H9           6.5450     4.6210    26.6390 h1         1 S7E       0.065367
     71 H10          7.0430     2.9400    27.0000 h1         1 S7E       0.065367
     72 H11          7.9850     3.9240    25.8440 h1         1 S7E       0.065367
     73 H17          2.3630    -1.3680    13.3360 h1         1 S7E       0.059367
     74 H18          0.8120    -1.0490    12.5060 h1         1 S7E       0.059367
     75 H19          1.8670     0.3150    12.9750 h1         1 S7E       0.059367
@<TRIPOS>BOND
     1     1    13 1   
     2     1    16 2   
     3     1    40 1   
     4     2    18 2   
     5     2    19 1   
     6     2    41 1   
     7     3    21 1   
     8     3    42 1   
     9     3    66 2   
    10     4     7 1   
    11     4    24 1   
    12     4    36 2   
    13     5     6 2   
    14     5    26 1   
    15     5    34 1   
    16     6    25 1   
    17     6    43 1   
    18     7    25 1   
    19     7    34 2   
    20     8    11 1   
    21     8    26 1   
    22     8    37 2   
    23     9    10 2   
    24     9    28 1   
    25     9    35 1   
    26    10    27 1   
    27    10    44 1   
    28    11    27 1   
    29    11    35 2   
    30    12    16 1   
    31    12    28 1   
    32    12    38 2   
    33    13    14 2   
    34    13    30 1   
    35    14    29 1   
    36    14    45 1   
    37    15    29 1   
    38    15    46 1   
    39    15    47 1   
    40    15    48 1   
    41    16    29 1   
    42    17    18 1   
    43    17    30 1   
    44    17    39 2   
    45    18    31 1   
    46    19    20 2   
    47    19    32 1   
    48    20    31 1   
    49    20    49 1   
    50    21    22 1   
    51    21    33 1   
    52    21    50 1   
    53    22    23 1   
    54    22    51 1   
    55    22    52 1   
    56    23    24 1   
    57    23    53 1   
    58    23    54 1   
    59    24    55 1   
    60    25    65 1   
    61    26    56 1   
    62    27    63 1   
    63    28    57 1   
    64    30    58 1   
    65    31    64 1   
    66    32    59 1   
    67    32    60 1   
    68    33    61 1   
    69    33    62 1   
    70    63    70 1   
    71    63    71 1   
    72    63    72 1   
    73    64    73 1   
    74    64    74 1   
    75    64    75 1   
    76    65    67 1   
    77    65    68 1   
    78    65    69 1   
@<TRIPOS>SUBSTRUCTURE
     1 S7E         1 TEMP              0 ****  ****    0 ROOT
