@<TRIPOS>MOLECULE
S7E
   75    78     1     0     0
SMALL
bcc


@<TRIPOS>ATOM
      1 C18          3.9720     1.4230    19.0530 cc         1 S7E      -0.197000
      2 C21          0.3850     0.6400    15.5060 cc         1 S7E      -0.201000
      3 C22         -1.4760    -1.9100    27.8030 c          1 S7E       0.537900
      4 C26         -1.8160     1.2360    28.1390 c          1 S7E       0.612600
      5 C27          1.4630     2.2300    27.1920 cc         1 S7E       0.432200
      6 C29          1.5210     2.5680    28.5260 cd         1 S7E      -0.252600
      7 C31         -0.4280     1.7230    28.0210 cd         1 S7E       0.349000
      8 C32          3.6370     2.8900    26.3350 c          1 S7E       0.616600
      9 C34          4.9880     2.5150    23.0720 cc         1 S7E       0.436200
     10 C35          6.0460     3.1710    23.6620 cd         1 S7E      -0.251600
     11 C37          4.4250     2.8730    25.0920 cd         1 S7E       0.346000
     12 C38          5.7290     2.1480    20.7820 c          1 S7E       0.720700
     13 C39          4.0460     0.9710    17.7240 cc         1 S7E      -0.018400
     14 C40          5.3870     0.9220    17.3890 cd         1 S7E      -0.144300
     15 C41          7.5610     1.3880    18.4500 c3         1 S7E       0.029600
     16 C42          5.2680     1.6390    19.4880 cd         1 S7E      -0.185900
     17 C43          2.9330     0.2880    15.6550 c          1 S7E       0.713700
     18 C44          1.6040     0.1420    15.0600 cd         1 S7E      -0.181900
     19 C45         -0.5950     0.2790    14.5650 cc         1 S7E       0.040600
     20 C46          0.0600    -0.4320    13.5760 cd         1 S7E      -0.195300
     21 C49         -2.9760    -2.1080    27.7920 c3         1 S7E       0.053500
     22 C50         -3.6240    -1.3230    26.6480 c3         1 S7E      -0.082400
     23 C51         -3.6330     0.1890    26.8410 c3         1 S7E       0.097000
     24 N12         -2.3050     0.7370    26.9930 ns         1 S7E      -0.564900
     25 N13          0.3010     2.2340    29.0340 na         1 S7E      -0.122900
     26 N14          2.4120     2.3430    26.1900 ns         1 S7E      -0.505400
     27 N15          5.6620     3.3890    24.9520 na         1 S7E      -0.127900
     28 N16          4.8160     2.0450    21.7810 ns         1 S7E      -0.522400
     29 N17          6.1110     1.3350    18.4600 na         1 S7E       0.002900
     30 N19          2.9270     0.6620    16.9580 ns         1 S7E      -0.437100
     31 N20          1.3850    -0.5040    13.8800 na         1 S7E       0.007900
     32 N22         -1.9650     0.5300    14.6450 nv         1 S7E      -0.769200
     33 N23         -3.6420    -1.8920    29.0550 n8         1 S7E      -0.882800
     34 N28          0.2580     1.7100    26.8950 nc         1 S7E      -0.713000
     35 N33          3.9960     2.3380    23.9640 nc         1 S7E      -0.712000
     36 O5          -2.4350     1.2900    29.1950 o          1 S7E      -0.617100
     37 O6           4.0560     3.3520    27.3850 o          1 S7E      -0.607100
     38 O7           6.8350     2.6370    20.9600 o          1 S7E      -0.609100
     39 O8           3.9730     0.1000    15.0350 o          1 S7E      -0.615100
     40 H1           3.0640     1.5980    19.6110 ha         1 S7E       0.150000
     41 H2           0.2170     1.2320    16.3940 ha         1 S7E       0.148000
     42 H3          -0.9940    -2.0300    26.8140 h4         1 S7E      -0.012800
     43 H4           2.2920     3.0000    29.1360 h4         1 S7E       0.203000
     44 H8           7.0030     3.4920    23.2950 h4         1 S7E       0.205000
     45 H12          5.8770     0.6160    16.4830 h4         1 S7E       0.194000
     46 H13          7.9780     0.8270    19.2830 h1         1 S7E       0.061700
     47 H14          7.9070     0.9370    17.5240 h1         1 S7E       0.061700
     48 H15          7.9200     2.4130    18.4980 h1         1 S7E       0.061700
     49 H16         -0.3280    -0.8910    12.6810 h4         1 S7E       0.168000
     50 H20         -3.0920    -3.1670    27.5200 h1         1 S7E       0.070700
     51 H21         -4.6550    -1.6610    26.5360 hc         1 S7E       0.055200
     52 H22         -3.1160    -1.5700    25.7120 hc         1 S7E       0.055200
     53 H23         -4.2280     0.4670    27.7100 h1         1 S7E       0.064200
     54 H24         -4.1070     0.6550    25.9760 h1         1 S7E       0.064200
     55 H25         -1.7070     0.7700    26.1790 hn         1 S7E       0.341500
     56 H26          2.1490     1.9960    25.2770 hn         1 S7E       0.363500
     57 H27          3.9490     1.5570    21.6160 hn         1 S7E       0.341500
     58 H28          2.0420     0.7330    17.4340 hn         1 S7E       0.328500
     59 H29         -2.1740     1.3430    15.2050 hn         1 S7E       0.367800
     60 H30         -2.3960     0.6470    13.7400 hn         1 S7E       0.367800
     61 H31         -3.2640    -2.5190    29.7530 hn         1 S7E       0.359800
     62 H32         -3.4540    -0.9570    29.3970 hn         1 S7E       0.359800
     63 C36          6.4830     4.0750    25.9340 c3         1 S7E       0.031600
     64 C47          2.3440    -1.1980    13.0440 c3         1 S7E       0.031600
     65 C30         -0.0680     2.4160    30.4270 c3         1 S7E       0.032600
     66 O4          -0.8170    -1.6970    28.7910 o          1 S7E      -0.519100
     67 H5          -0.8940     3.1130    30.5220 h1         1 S7E       0.065367
     68 H6          -0.3460     1.4680    30.8790 h1         1 S7E       0.065367
     69 H7           0.7950     2.8150    30.9520 h1         1 S7E       0.065367
     70 H9           5.9950     4.9830    26.2750 h1         1 S7E       0.065367
     71 H10          6.6850     3.4330    26.7870 h1         1 S7E       0.065367
     72 H11          7.4240     4.3370    25.4600 h1         1 S7E       0.065367
     73 H17          2.9210    -1.9170    13.6190 h1         1 S7E       0.059367
     74 H18          1.7920    -1.7340    12.2770 h1         1 S7E       0.059367
     75 H19          3.0270    -0.5040    12.5600 h1         1 S7E       0.059367
@<TRIPOS>BOND
     1     1    13 1   
     2     1    16 2   
     3     1    40 1   
     4     2    18 2   
     5     2    19 1   
     6     2    41 1   
     7     3    21 1   
     8     3    42 1   
     9     3    66 2   
    10     4     7 1   
    11     4    24 1   
    12     4    36 2   
    13     5     6 2   
    14     5    26 1   
    15     5    34 1   
    16     6    25 1   
    17     6    43 1   
    18     7    25 1   
    19     7    34 2   
    20     8    11 1   
    21     8    26 1   
    22     8    37 2   
    23     9    10 2   
    24     9    28 1   
    25     9    35 1   
    26    10    27 1   
    27    10    44 1   
    28    11    27 1   
    29    11    35 2   
    30    12    16 1   
    31    12    28 1   
    32    12    38 2   
    33    13    14 2   
    34    13    30 1   
    35    14    29 1   
    36    14    45 1   
    37    15    29 1   
    38    15    46 1   
    39    15    47 1   
    40    15    48 1   
    41    16    29 1   
    42    17    18 1   
    43    17    30 1   
    44    17    39 2   
    45    18    31 1   
    46    19    20 2   
    47    19    32 1   
    48    20    31 1   
    49    20    49 1   
    50    21    22 1   
    51    21    33 1   
    52    21    50 1   
    53    22    23 1   
    54    22    51 1   
    55    22    52 1   
    56    23    24 1   
    57    23    53 1   
    58    23    54 1   
    59    24    55 1   
    60    25    65 1   
    61    26    56 1   
    62    27    63 1   
    63    28    57 1   
    64    30    58 1   
    65    31    64 1   
    66    32    59 1   
    67    32    60 1   
    68    33    61 1   
    69    33    62 1   
    70    63    70 1   
    71    63    71 1   
    72    63    72 1   
    73    64    73 1   
    74    64    74 1   
    75    64    75 1   
    76    65    67 1   
    77    65    68 1   
    78    65    69 1   
@<TRIPOS>SUBSTRUCTURE
     1 S7E         1 TEMP              0 ****  ****    0 ROOT
