@<TRIPOS>MOLECULE
S7F
   38    39     1     0     0
SMALL
abcg2


@<TRIPOS>ATOM
      1 C18        -36.5710   -21.3740    21.2080 c6         1 S7F       0.198800
      2 C15        -37.7460   -22.2520    23.2150 c          1 S7F       0.596100
      3 C14        -37.7760   -21.1810    22.1340 c6         1 S7F      -0.138700
      4 C13        -37.7560   -19.7800    22.7580 c6         1 S7F      -0.066400
      5 C12        -37.6540   -18.7110    21.6740 c6         1 S7F      -0.073400
      6 C11        -36.4590   -18.9590    20.7630 c6         1 S7F       0.192800
      7 C20        -33.2150   -19.5100    19.3310 ca         1 S7F       0.058000
      8 C02        -31.9150   -19.5580    19.7760 ca         1 S7F      -0.219300
      9 C03        -31.4260   -20.8220    20.2120 ca         1 S7F       0.661900
     10 C06        -33.4240   -21.8630    19.7450 ca         1 S7F       0.490900
     11 C07        -33.9930   -20.6760    19.3080 ca         1 S7F      -0.449500
     12 N05        -32.1710   -21.9400    20.1840 nb         1 S7F      -0.766000
     13 N10        -36.5660   -20.3140    20.1880 n3         1 S7F      -0.728500
     14 N16        -38.7900   -23.0990    23.2330 nt         1 S7F      -0.604000
     15 O17        -36.8170   -22.3320    24.0190 o          1 S7F      -0.611100
     16 S08        -35.6790   -20.6160    18.8300 sy         1 S7F       1.201600
     17 H181       -36.6300   -22.3380    20.7080 h1         1 S7F       0.066200
     18 H182       -35.6480   -21.3400    21.7990 h1         1 S7F       0.066200
     19 H141       -38.6830   -21.2940    21.5360 hc         1 S7F       0.066700
     20 H132       -36.8950   -19.7090    23.4280 hc         1 S7F       0.055700
     21 H131       -38.6540   -19.6290    23.3600 hc         1 S7F       0.055700
     22 H121       -37.5500   -17.7230    22.1250 hc         1 S7F       0.053700
     23 H122       -38.5650   -18.7020    21.0690 hc         1 S7F       0.053700
     24 H112       -35.5250   -18.8690    21.3330 h1         1 S7F       0.056200
     25 H111       -36.4400   -18.2410    19.9490 h1         1 S7F       0.056200
     26 H201       -33.6330   -18.5730    18.9870 ha         1 S7F       0.133000
     27 H011       -30.6980   -18.1260    20.8260 hc         1 S7F       0.042700
     28 H012       -30.1420   -18.4850    19.1950 hc         1 S7F       0.042700
     29 H013       -31.5720   -17.4730    19.4330 hc         1 S7F       0.042700
     30 H061       -33.9920   -22.7850    19.7320 h4         1 S7F       0.038100
     31 H042       -29.8140   -21.8720    20.8660 hn         1 S7F       0.494000
     32 H041       -29.4950   -20.2100    20.5750 hn         1 S7F       0.494000
     33 H161       -38.8320   -23.8250    23.9320 hn         1 S7F       0.317500
     34 H162       -39.5470   -23.0200    22.5760 hn         1 S7F       0.317500
     35 N04        -30.1710   -20.9430    20.7090 nv         1 S7F      -1.065900
     36 C01        -31.0370   -18.3430    19.8090 c3         1 S7F      -0.036800
     37 O09        -35.8640   -19.4790    17.9580 o          1 S7F      -0.548500
     38 O19        -36.0660   -21.9290    18.3670 o          1 S7F      -0.548500
@<TRIPOS>BOND
     1     1     3 1   
     2     1    13 1   
     3     1    17 1   
     4     1    18 1   
     5     2     3 1   
     6     2    14 1   
     7     2    15 2   
     8     3     4 1   
     9     3    19 1   
    10     4     5 1   
    11     4    20 1   
    12     4    21 1   
    13     5     6 1   
    14     5    22 1   
    15     5    23 1   
    16     6    13 1   
    17     6    24 1   
    18     6    25 1   
    19     7     8 ar  
    20     7    11 ar  
    21     7    26 1   
    22     8     9 ar  
    23     8    36 1   
    24     9    12 ar  
    25     9    35 1   
    26    10    11 ar  
    27    10    12 ar  
    28    10    30 1   
    29    11    16 1   
    30    13    16 1   
    31    14    33 1   
    32    14    34 1   
    33    16    37 2   
    34    16    38 2   
    35    27    36 1   
    36    28    36 1   
    37    29    36 1   
    38    31    35 1   
    39    32    35 1   
@<TRIPOS>SUBSTRUCTURE
     1 S7F         1 TEMP              0 ****  ****    0 ROOT
