@<TRIPOS>MOLECULE
S7F
   38    39     1     0     0
SMALL
No Charge or Current Charge


@<TRIPOS>ATOM
      1 C18        -37.0980   -21.9500    21.1280 c6         1 S7F       0.198800
      2 C15        -39.4960   -21.6660    21.9820 c          1 S7F       0.596100
      3 C14        -38.1000   -21.0370    21.8680 c6         1 S7F      -0.138700
      4 C13        -37.5610   -20.5000    23.2170 c6         1 S7F      -0.066400
      5 C12        -36.1650   -19.8730    23.0090 c6         1 S7F      -0.073400
      6 C11        -35.2120   -20.8480    22.2760 c6         1 S7F       0.192800
      7 C20        -33.4240   -19.7870    19.2930 ca         1 S7F       0.058000
      8 C02        -32.2800   -18.9760    19.2760 ca         1 S7F      -0.219300
      9 C03        -31.1170   -19.5010    19.8630 ca         1 S7F       0.661900
     10 C06        -32.1060   -21.4700    20.4390 ca         1 S7F       0.490900
     11 C07        -33.3160   -21.0510    19.8900 ca         1 S7F      -0.449500
     12 N05        -31.0020   -20.6940    20.4220 nb         1 S7F      -0.766000
     13 N10        -35.7780   -21.2860    20.9710 n3         1 S7F      -0.728500
     14 N16        -40.5350   -20.9400    21.5150 nt         1 S7F      -0.604000
     15 O17        -39.6910   -22.7590    22.4860 o          1 S7F      -0.611100
     16 S08        -34.7050   -22.1420    19.9680 sy         1 S7F       1.201600
     17 H181       -37.5230   -22.2050    20.1450 h1         1 S7F       0.066200
     18 H182       -36.9890   -22.8930    21.6850 h1         1 S7F       0.066200
     19 H141       -38.2300   -20.1460    21.2380 hc         1 S7F       0.066700
     20 H132       -37.4930   -21.3220    23.9450 hc         1 S7F       0.055700
     21 H131       -38.2510   -19.7570    23.6410 hc         1 S7F       0.055700
     22 H121       -35.7330   -19.5880    23.9780 hc         1 S7F       0.053700
     23 H122       -36.2560   -18.9480    22.4230 hc         1 S7F       0.053700
     24 H112       -35.0190   -21.7190    22.9210 h1         1 S7F       0.056200
     25 H111       -34.2520   -20.3310    22.1420 h1         1 S7F       0.056200
     26 H201       -34.3650   -19.4450    18.8620 ha         1 S7F       0.133000
     27 H011       -31.9950   -16.8180    19.3600 hc         1 S7F       0.042700
     28 H012       -31.6710   -17.5300    17.7670 hc         1 S7F       0.042700
     29 H013       -33.3350   -17.3170    18.3230 hc         1 S7F       0.042700
     30 H061       -31.9930   -22.4480    20.9090 h4         1 S7F       0.038100
     31 H042       -29.1670   -19.4730    20.1380 hn         1 S7F       0.494000
     32 H041       -29.7750   -18.1560    19.2160 hn         1 S7F       0.494000
     33 H161       -41.4690   -21.3160    21.5820 hn         1 S7F       0.317500
     34 H162       -40.3770   -20.0300    21.1090 hn         1 S7F       0.317500
     35 N04        -29.9460   -18.8660    19.9180 nv         1 S7F      -1.065900
     36 C01        -32.3220   -17.5850    18.6470 c3         1 S7F      -0.036800
     37 O09        -35.3190   -22.1410    18.6360 o          1 S7F      -0.548500
     38 O19        -34.3420   -23.3800    20.6620 o          1 S7F      -0.548500
@<TRIPOS>BOND
     1     1     3 1   
     2     1    13 1   
     3     1    17 1   
     4     1    18 1   
     5     2     3 1   
     6     2    14 1   
     7     2    15 2   
     8     3     4 1   
     9     3    19 1   
    10     4     5 1   
    11     4    20 1   
    12     4    21 1   
    13     5     6 1   
    14     5    22 1   
    15     5    23 1   
    16     6    13 1   
    17     6    24 1   
    18     6    25 1   
    19     7     8 ar  
    20     7    11 ar  
    21     7    26 1   
    22     8     9 ar  
    23     8    36 1   
    24     9    12 ar  
    25     9    35 1   
    26    10    11 ar  
    27    10    12 ar  
    28    10    30 1   
    29    11    16 1   
    30    13    16 1   
    31    14    33 1   
    32    14    34 1   
    33    16    37 2   
    34    16    38 2   
    35    27    36 1   
    36    28    36 1   
    37    29    36 1   
    38    31    35 1   
    39    32    35 1   
@<TRIPOS>SUBSTRUCTURE
     1 S7F         1 TEMP              0 ****  ****    0 ROOT
