@<TRIPOS>MOLECULE
S7G
   28    29     1     0     0
SMALL
No Charge or Current Charge


@<TRIPOS>ATOM
      1 N1          50.5910     6.6960    62.2440 nu         1 S7G      -0.965200
      2 C4          49.2010     6.8230    62.2490 ca         1 S7G       0.298000
      3 C5          48.5350     7.2690    61.0980 ca         1 S7G      -0.178000
      4 C6          47.1340     7.3900    61.0950 ca         1 S7G      -0.073000
      5 C7          46.4010     7.0640    62.2480 ca         1 S7G      -0.151000
      6 C8          47.0630     6.6170    63.4050 ca         1 S7G      -0.070000
      7 C10         49.1900     6.0180    64.6860 c6         1 S7G      -0.047100
      8 N           50.5160     4.1520    63.7200 ns         1 S7G      -0.501900
      9 C           50.2190     1.7540    63.3780 c3         1 S7G      -0.179100
     10 O           50.2800     2.8130    65.5450 o          1 S7G      -0.615100
     11 C1          50.3370     2.9360    64.3300 c          1 S7G       0.600100
     12 C2          50.6100     5.4580    64.3960 c6         1 S7G       0.112700
     13 C3          51.3620     6.4790    63.4910 c6         1 S7G       0.194800
     14 C9          48.4660     6.4890    63.4110 ca         1 S7G      -0.138300
     15 H1          51.0790     7.0330    61.4110 hn         1 S7G       0.470000
     16 H2          49.0990     7.5210    60.2050 ha         1 S7G       0.108000
     17 H3          46.6190     7.7360    60.2010 ha         1 S7G       0.110000
     18 H4          45.3170     7.1600    62.2470 ha         1 S7G       0.115000
     19 H5          46.4880     6.3710    64.2950 ha         1 S7G       0.111000
     20 H6          49.2750     6.8680    65.3770 hc         1 S7G       0.063200
     21 H7          48.5900     5.2610    65.2100 hc         1 S7G       0.063200
     22 H8          50.5330     4.1580    62.7070 hn         1 S7G       0.325500
     23 H9          50.0800     0.8020    63.9010 hc         1 S7G       0.059700
     24 H10         49.4070     1.9480    62.6680 hc         1 S7G       0.059700
     25 H11         51.0990     1.7320    62.7240 hc         1 S7G       0.059700
     26 H12         51.1610     5.3320    65.3400 h1         1 S7G       0.078700
     27 H13         52.3770     6.1150    63.2690 h1         1 S7G       0.046200
     28 H14         51.4660     7.4260    64.0410 h1         1 S7G       0.046200
@<TRIPOS>BOND
     1     1     2 1   
     2     1    13 1   
     3     1    15 1   
     4     2     3 ar  
     5     2    14 ar  
     6     3     4 ar  
     7     3    16 1   
     8     4     5 ar  
     9     4    17 1   
    10     5     6 ar  
    11     5    18 1   
    12     6    14 ar  
    13     6    19 1   
    14     7    12 1   
    15     7    14 1   
    16     7    20 1   
    17     7    21 1   
    18     8    11 1   
    19     8    12 1   
    20     8    22 1   
    21     9    11 1   
    22     9    23 1   
    23     9    24 1   
    24     9    25 1   
    25    10    11 2   
    26    12    13 1   
    27    12    26 1   
    28    13    27 1   
    29    13    28 1   
@<TRIPOS>SUBSTRUCTURE
     1 S7G         1 TEMP              0 ****  ****    0 ROOT
