@<TRIPOS>MOLECULE
S7G
   28    29     1     0     0
SMALL
abcg2


@<TRIPOS>ATOM
      1 N1          50.6040     6.6040    62.2450 nu         1 S7G      -0.965200
      2 C4          49.2360     6.7890    62.2720 ca         1 S7G       0.298000
      3 C5          48.5620     7.2450    61.1330 ca         1 S7G      -0.178000
      4 C6          47.1820     7.3590    61.1250 ca         1 S7G      -0.073000
      5 C7          46.4440     7.0200    62.2530 ca         1 S7G      -0.151000
      6 C8          47.1130     6.5740    63.3830 ca         1 S7G      -0.070000
      7 C10         49.2000     5.9970    64.6720 c6         1 S7G      -0.047100
      8 N           50.5650     4.1860    63.6780 ns         1 S7G      -0.501900
      9 C           50.1690     1.8350    63.3580 c3         1 S7G      -0.179100
     10 O           50.1210     2.9270    65.4950 o          1 S7G      -0.615100
     11 C1          50.2860     3.0210    64.2850 c          1 S7G       0.600100
     12 C2          50.5990     5.4600    64.3680 c6         1 S7G       0.112700
     13 C3          51.3220     6.4720    63.4920 c6         1 S7G       0.194800
     14 C9          48.4980     6.4590    63.4210 ca         1 S7G      -0.138300
     15 H1          51.0970     7.0690    61.5010 hn         1 S7G       0.470000
     16 H2          49.1320     7.5060    60.2490 ha         1 S7G       0.108000
     17 H3          46.6830     7.7120    60.2320 ha         1 S7G       0.110000
     18 H4          45.3650     7.1000    62.2500 ha         1 S7G       0.115000
     19 H5          46.5480     6.3040    64.2690 ha         1 S7G       0.111000
     20 H6          49.3040     6.8330    65.3710 hc         1 S7G       0.063200
     21 H7          48.6050     5.2440    65.1900 hc         1 S7G       0.063200
     22 H8          50.6150     4.2090    62.6700 hn         1 S7G       0.325500
     23 H9          50.3320     0.9090    63.9040 hc         1 S7G       0.059700
     24 H10         49.1620     1.8060    62.9360 hc         1 S7G       0.059700
     25 H11         50.8710     1.8860    62.5260 hc         1 S7G       0.059700
     26 H12         51.1540     5.3360    65.2990 h1         1 S7G       0.078700
     27 H13         52.3380     6.1410    63.2730 h1         1 S7G       0.046200
     28 H14         51.3900     7.4190    64.0410 h1         1 S7G       0.046200
@<TRIPOS>BOND
     1     1     2 1   
     2     1    13 1   
     3     1    15 1   
     4     2     3 ar  
     5     2    14 ar  
     6     3     4 ar  
     7     3    16 1   
     8     4     5 ar  
     9     4    17 1   
    10     5     6 ar  
    11     5    18 1   
    12     6    14 ar  
    13     6    19 1   
    14     7    12 1   
    15     7    14 1   
    16     7    20 1   
    17     7    21 1   
    18     8    11 1   
    19     8    12 1   
    20     8    22 1   
    21     9    11 1   
    22     9    23 1   
    23     9    24 1   
    24     9    25 1   
    25    10    11 2   
    26    12    13 1   
    27    12    26 1   
    28    13    27 1   
    29    13    28 1   
@<TRIPOS>SUBSTRUCTURE
     1 S7G         1 TEMP              0 ****  ****    0 ROOT
