@<TRIPOS>MOLECULE
S7H
   38    40     1     0     0
SMALL
bcc


@<TRIPOS>ATOM
      1 N10          7.6030    -1.5050    23.6520 n          1 S7H      -0.509900
      2 C11          6.7200    -2.0300    24.6860 c3         1 S7H       0.115000
      3 C12          6.0660    -0.9440    25.5020 cx         1 S7H       0.040600
      4 C13          5.6680     0.3510    24.9660 cx         1 S7H       0.056900
      5 C18         11.1000    -0.4320    23.3200 c3         1 S7H       0.115000
      6 C19         11.2720     0.9650    23.8600 cx         1 S7H       0.040600
      7 C20         10.4400     2.1000    23.4830 cx         1 S7H       0.056900
      8 C02          9.2850    -0.5150    21.7060 c          1 S7H       0.838000
      9 C04          7.4150    -0.5090    20.1170 c3         1 S7H       0.068000
     10 C05          7.1460    -1.7250    19.2220 c3         1 S7H       0.142100
     11 C06          8.2180    -2.7890    19.3370 c3         1 S7H      -0.123100
     12 C08          7.1000    -1.3270    22.3920 c          1 S7H       0.838000
     13 C15          8.9250    -1.2680    24.0040 c          1 S7H       0.851500
     14 N03          7.9560    -0.8020    21.4520 n          1 S7H      -0.511400
     15 N17          9.7160    -0.7500    22.9880 n          1 S7H      -0.509900
     16 O01         10.0230    -0.0800    20.8510 o          1 S7H      -0.623500
     17 O07          5.8670    -2.2840    19.3950 oh         1 S7H      -0.602800
     18 O09          5.9530    -1.6130    22.1110 o          1 S7H      -0.623500
     19 O14          6.8180     0.2110    25.7810 op         1 S7H      -0.366600
     20 O16          9.3590    -1.5370    25.0860 o          1 S7H      -0.561500
     21 O21         10.2890     1.4570    24.7350 op         1 S7H      -0.366600
     22 H112         5.9550    -2.6460    24.2210 h1         1 S7H       0.087450
     23 H111         7.3050    -2.6760    25.3370 h1         1 S7H       0.087450
     24 H121         5.4940    -1.3460    26.3380 h1         1 S7H       0.094200
     25 H131         5.8450     0.6080    23.9260 h1         1 S7H       0.077200
     26 H132         4.8240     0.8730    25.4100 h1         1 S7H       0.077200
     27 H181        11.4450    -1.1540    24.0570 h1         1 S7H       0.087450
     28 H182        11.7170    -0.5560    22.4340 h1         1 S7H       0.087450
     29 H191        12.3030     1.1650    24.1510 h1         1 S7H       0.094200
     30 H202        10.8680     3.0990    23.5020 h1         1 S7H       0.077200
     31 H201         9.6170     1.9900    22.7830 h1         1 S7H       0.077200
     32 H041         8.1430     0.1270    19.6250 h1         1 S7H       0.080200
     33 H042         6.5080     0.0870    20.2300 h1         1 S7H       0.080200
     34 H051         7.1640    -1.3290    18.2020 h1         1 S7H       0.071700
     35 H061         9.2130    -2.3830    19.1510 hc         1 S7H       0.043367
     36 H062         8.2270    -3.2620    20.3210 hc         1 S7H       0.043367
     37 H2           8.0430    -3.5740    18.6020 hc         1 S7H       0.043367
     38 H1           5.6790    -2.2790    20.3430 ho         1 S7H       0.429000
@<TRIPOS>BOND
     1     1     2 1   
     2     1    12 1   
     3     1    13 1   
     4     2     3 1   
     5     2    22 1   
     6     2    23 1   
     7     3     4 1   
     8     3    19 1   
     9     3    24 1   
    10     4    19 1   
    11     4    25 1   
    12     4    26 1   
    13     5     6 1   
    14     5    15 1   
    15     5    27 1   
    16     5    28 1   
    17     6     7 1   
    18     6    21 1   
    19     6    29 1   
    20     7    21 1   
    21     7    30 1   
    22     7    31 1   
    23     8    14 1   
    24     8    15 1   
    25     8    16 2   
    26     9    10 1   
    27     9    14 1   
    28     9    32 1   
    29     9    33 1   
    30    10    11 1   
    31    10    17 1   
    32    10    34 1   
    33    11    35 1   
    34    11    36 1   
    35    11    37 1   
    36    12    14 1   
    37    12    18 2   
    38    13    15 1   
    39    13    20 2   
    40    17    38 1   
@<TRIPOS>SUBSTRUCTURE
     1 S7H         1 TEMP              0 ****  ****    0 ROOT
