@<TRIPOS>MOLECULE
S7H
   38    40     1     0     0
SMALL
No Charge or Current Charge


@<TRIPOS>ATOM
      1 N10          7.5110    -1.4980    23.7560 n          1 S7H      -0.375900
      2 C11          6.5980    -1.9800    24.8380 c3         1 S7H       0.115000
      3 C12          5.9690    -0.8730    25.6920 cx         1 S7H       0.063800
      4 C13          5.1800     0.2420    25.0630 cx         1 S7H       0.080100
      5 C18         11.1090    -0.5320    23.3500 c3         1 S7H       0.115000
      6 C19         11.3970     0.8610    23.9220 cx         1 S7H       0.063800
      7 C20         10.9460     2.1060    23.2080 cx         1 S7H       0.080100
      8 C02          9.2100    -0.5780    21.7450 c          1 S7H       0.628500
      9 C04          7.3020    -0.5450    20.1370 c3         1 S7H       0.068000
     10 C05          7.1700    -1.7780    19.1990 c3         1 S7H       0.165300
     11 C06          8.4960    -2.5310    18.9730 c3         1 S7H      -0.123100
     12 C08          6.9890    -1.3000    22.4810 c          1 S7H       0.628500
     13 C15          8.8490    -1.2620    24.0730 c          1 S7H       0.642000
     14 N03          7.8610    -0.8410    21.4970 n          1 S7H      -0.377400
     15 N17          9.6710    -0.8050    23.0410 n          1 S7H      -0.375900
     16 O01          9.9550    -0.1680    20.8660 o          1 S7H      -0.548000
     17 O07          6.2030    -2.6980    19.7250 oh         1 S7H      -0.665000
     18 O09          5.8200    -1.5460    22.2160 o          1 S7H      -0.548000
     19 O14          6.5110     0.4660    25.5830 op         1 S7H      -0.413000
     20 O16          9.2860    -1.4660    25.1980 o          1 S7H      -0.486000
     21 O21         10.2800     1.6460    24.4070 op         1 S7H      -0.413000
     22 H112         5.7920    -2.5890    24.4090 h1         1 S7H       0.087450
     23 H111         7.1490    -2.6570    25.5030 h1         1 S7H       0.087450
     24 H121         5.6830    -1.1850    26.6970 h1         1 S7H       0.094200
     25 H131         5.0900     0.2960    23.9790 h1         1 S7H       0.077200
     26 H132         4.3750     0.7050    25.6330 h1         1 S7H       0.077200
     27 H181        11.4730    -1.2800    24.0670 h1         1 S7H       0.087450
     28 H182        11.7220    -0.6730    22.4510 h1         1 S7H       0.087450
     29 H191        12.3110     0.9260    24.5140 h1         1 S7H       0.094200
     30 H202        11.5290     3.0200    23.3220 h1         1 S7H       0.077200
     31 H201        10.3620     2.0240    22.2930 h1         1 S7H       0.077200
     32 H041         7.9250     0.2030    19.6310 h1         1 S7H       0.080200
     33 H042         6.3160    -0.0730    20.2440 h1         1 S7H       0.080200
     34 H051         6.8270    -1.4090    18.2220 h1         1 S7H       0.071700
     35 H061         9.2580    -1.8550    18.5690 hc         1 S7H       0.043367
     36 H062         8.8750    -2.9590    19.9090 hc         1 S7H       0.043367
     37 H2           8.3550    -3.3490    18.2560 hc         1 S7H       0.043367
     38 H1           5.9300    -2.3490    20.6110 ho         1 S7H       0.468000
@<TRIPOS>BOND
     1     1     2 1   
     2     1    12 1   
     3     1    13 1   
     4     2     3 1   
     5     2    22 1   
     6     2    23 1   
     7     3     4 1   
     8     3    19 1   
     9     3    24 1   
    10     4    19 1   
    11     4    25 1   
    12     4    26 1   
    13     5     6 1   
    14     5    15 1   
    15     5    27 1   
    16     5    28 1   
    17     6     7 1   
    18     6    21 1   
    19     6    29 1   
    20     7    21 1   
    21     7    30 1   
    22     7    31 1   
    23     8    14 1   
    24     8    15 1   
    25     8    16 2   
    26     9    10 1   
    27     9    14 1   
    28     9    32 1   
    29     9    33 1   
    30    10    11 1   
    31    10    17 1   
    32    10    34 1   
    33    11    35 1   
    34    11    36 1   
    35    11    37 1   
    36    12    14 1   
    37    12    18 2   
    38    13    15 1   
    39    13    20 2   
    40    17    38 1   
@<TRIPOS>SUBSTRUCTURE
     1 S7H         1 TEMP              0 ****  ****    0 ROOT
