@<TRIPOS>MOLECULE
S7I
   52    55     1     0     0
SMALL
abcg2


@<TRIPOS>ATOM
      1 C10        -18.8360   -21.8330    -5.0740 ca         1 S7I      -0.123000
      2 C15        -16.5940   -18.9010    -1.4220 c          1 S7I       0.588100
      3 C18        -15.9340   -17.5730     0.7020 c5         1 S7I      -0.080400
      4 C19        -14.6150   -17.3650     1.4550 c5         1 S7I      -0.074400
      5 C20        -13.5030   -17.7210     0.4370 c5         1 S7I      -0.074400
      6 C21        -14.2190   -18.4010    -0.7510 c5         1 S7I      -0.080400
      7 C23        -16.4340   -20.4620     1.3240 ca         1 S7I       0.124100
      8 C24        -17.7890   -20.1460     1.2390 ca         1 S7I      -0.150500
      9 C04        -20.3930   -17.6370    -6.8340 cc         1 S7I      -0.328900
     10 C05        -19.8460   -18.2470    -5.7370 cd         1 S7I      -0.089000
     11 C06        -19.3840   -19.5730    -5.9890 cd         1 S7I      -0.059000
     12 C07        -19.5970   -19.9340    -7.3000 cc         1 S7I      -0.233000
     13 C09        -18.7500   -20.4400    -4.9800 ca         1 S7I       0.012000
     14 C11        -18.2150   -22.6350    -4.1260 ca         1 S7I      -0.082000
     15 C12        -17.5110   -22.0690    -3.0750 ca         1 S7I      -0.157000
     16 C13        -17.4220   -20.6780    -2.9670 ca         1 S7I      -0.023000
     17 C17        -15.6300   -18.7410    -0.2370 c5         1 S7I       0.095000
     18 C25        -18.6930   -20.7310     2.1200 ca         1 S7I      -0.070000
     19 C26        -18.2420   -21.6310     3.0710 ca         1 S7I       0.094000
     20 C28        -16.8940   -21.9590     3.1620 ca         1 S7I      -0.070000
     21 C29        -15.9950   -21.3690     2.2880 ca         1 S7I      -0.150500
     22 C30        -18.0410   -19.8680    -3.9180 ca         1 S7I      -0.124000
     23 N01        -20.9600   -15.6930    -8.1360 nv         1 S7I      -1.039200
     24 N03        -21.5490   -15.6970    -5.9070 n2         1 S7I      -0.833100
     25 N14        -16.6740   -20.1690    -1.8920 ns         1 S7I      -0.139000
     26 O16        -17.1710   -17.9340    -1.9050 o          1 S7I      -0.583100
     27 O22        -15.4640   -19.9820     0.4860 os         1 S7I      -0.368100
     28 S08        -20.3400   -18.6910    -8.2110 ss         1 S7I       0.242000
     29 CL27       -19.3840   -22.3650     4.1800 cl         1 S7I      -0.209000
     30 H101       -19.4000   -22.2870    -5.8780 ha         1 S7I       0.117000
     31 H181       -16.1720   -16.7100     0.0800 hc         1 S7I       0.068200
     32 H182       -16.7840   -17.7540     1.3560 hc         1 S7I       0.068200
     33 H191       -14.5690   -18.0370     2.3130 hc         1 S7I       0.049950
     34 H192       -14.5260   -16.3470     1.8350 hc         1 S7I       0.049950
     35 H201       -12.7640   -18.3860     0.8830 hc         1 S7I       0.049950
     36 H202       -12.9730   -16.8300     0.0990 hc         1 S7I       0.049950
     37 H211       -13.7190   -19.3000    -1.1090 hc         1 S7I       0.068200
     38 H212       -14.3190   -17.7130    -1.5910 hc         1 S7I       0.068200
     39 H241       -18.1630   -19.4520     0.5020 ha         1 S7I       0.131500
     40 H051       -19.7790   -17.7620    -4.7740 ha         1 S7I       0.146000
     41 H071       -19.3380   -20.8650    -7.7790 h4         1 S7I       0.153000
     42 H111       -18.2870   -23.7130    -4.2010 ha         1 S7I       0.116000
     43 H121       -17.0290   -22.6950    -2.3330 ha         1 S7I       0.115000
     44 H251       -19.7440   -20.4830     2.0560 ha         1 S7I       0.133500
     45 H281       -16.5500   -22.6610     3.9080 ha         1 S7I       0.133500
     46 H291       -14.9400   -21.6060     2.3430 ha         1 S7I       0.131500
     47 H301       -17.9500   -18.7980    -3.8380 ha         1 S7I       0.147000
     48 H012       -21.2720   -14.7330    -8.1680 hn         1 S7I       0.472000
     49 H031       -21.5870   -16.3130    -5.1000 hn         1 S7I       0.391400
     50 H141       -16.1560   -20.8550    -1.3600 hn         1 S7I       0.169000
     51 H011       -20.1950   -15.9110    -8.7550 hn         1 S7I       0.472000
     52 C02        -20.9890   -16.2880    -6.9020 ce         1 S7I       0.685800
@<TRIPOS>BOND
     1     1    13 ar  
     2     1    14 ar  
     3     1    30 1   
     4     2    17 1   
     5     2    25 1   
     6     2    26 2   
     7     3     4 1   
     8     3    17 1   
     9     3    31 1   
    10     3    32 1   
    11     4     5 1   
    12     4    33 1   
    13     4    34 1   
    14     5     6 1   
    15     5    35 1   
    16     5    36 1   
    17     6    17 1   
    18     6    37 1   
    19     6    38 1   
    20     7     8 ar  
    21     7    21 ar  
    22     7    27 1   
    23     8    18 ar  
    24     8    39 1   
    25     9    10 2   
    26     9    28 1   
    27     9    52 1   
    28    10    11 1   
    29    10    40 1   
    30    11    12 2   
    31    11    13 1   
    32    12    28 1   
    33    12    41 1   
    34    13    22 ar  
    35    14    15 ar  
    36    14    42 1   
    37    15    16 ar  
    38    15    43 1   
    39    16    22 ar  
    40    16    25 1   
    41    17    27 1   
    42    18    19 ar  
    43    18    44 1   
    44    19    20 ar  
    45    19    29 1   
    46    20    21 ar  
    47    20    45 1   
    48    21    46 1   
    49    22    47 1   
    50    23    48 1   
    51    23    51 1   
    52    23    52 1   
    53    24    49 1   
    54    24    52 2   
    55    25    50 1   
@<TRIPOS>SUBSTRUCTURE
     1 S7I         1 TEMP              0 ****  ****    0 ROOT
