@<TRIPOS>MOLECULE
S7I
   52    55     1     0     0
SMALL
No Charge or Current Charge


@<TRIPOS>ATOM
      1 C10        -18.8790   -21.8190    -4.9330 ca         1 S7I      -0.123000
      2 C15        -16.5810   -18.6390    -1.3660 c          1 S7I       0.588100
      3 C18        -15.9370   -17.5300     0.9510 c5         1 S7I      -0.080400
      4 C19        -14.6130   -17.4350     1.7600 c5         1 S7I      -0.074400
      5 C20        -13.4870   -17.6700     0.7030 c5         1 S7I      -0.074400
      6 C21        -14.2330   -18.0420    -0.6180 c5         1 S7I      -0.080400
      7 C23        -16.3140   -20.5220     1.2190 ca         1 S7I       0.124100
      8 C24        -17.6920   -20.1820     1.1730 ca         1 S7I      -0.150500
      9 C04        -20.4620   -17.6630    -6.9650 cc         1 S7I      -0.328900
     10 C05        -19.7130   -18.1840    -5.9300 cd         1 S7I      -0.089000
     11 C06        -19.6250   -19.6130    -5.8990 cd         1 S7I      -0.059000
     12 C07        -20.3360   -20.1750    -6.9370 cc         1 S7I      -0.233000
     13 C09        -18.8780   -20.4060    -4.8860 ca         1 S7I       0.012000
     14 C11        -18.1740   -22.5740    -3.9840 ca         1 S7I      -0.082000
     15 C12        -17.4560   -21.9310    -2.9670 ca         1 S7I      -0.157000
     16 C13        -17.4380   -20.5290    -2.8880 ca         1 S7I      -0.023000
     17 C17        -15.5980   -18.6130    -0.1310 c5         1 S7I       0.095000
     18 C25        -18.6220   -20.8850     1.9610 ca         1 S7I      -0.070000
     19 C26        -18.1970   -21.9330     2.7920 ca         1 S7I       0.094000
     20 C28        -16.8400   -22.2840     2.8350 ca         1 S7I      -0.070000
     21 C29        -15.9090   -21.5830     2.0490 ca         1 S7I      -0.150500
     22 C30        -18.1460   -19.7760    -3.8510 ca         1 S7I      -0.124000
     23 N01        -21.4210   -15.9470    -8.3890 nv         1 S7I      -1.039200
     24 N03        -20.3600   -15.3310    -6.5310 n2         1 S7I      -0.833100
     25 N14        -16.6890   -19.9450    -1.8320 ns         1 S7I      -0.139000
     26 O16        -17.2050   -17.6810    -1.8140 o          1 S7I      -0.583100
     27 O22        -15.2980   -19.9260     0.4720 os         1 S7I      -0.368100
     28 S08        -21.1070   -18.9670    -7.9510 ss         1 S7I       0.242000
     29 Cl27       -19.3650   -22.8080     3.7730 cl         1 S7I      -0.209000
     30 H101       -19.4250   -22.3520    -5.7050 ha         1 S7I       0.117000
     31 H181       -16.1710   -16.5650     0.4840 hc         1 S7I       0.068200
     32 H182       -16.7900   -17.7700     1.5920 hc         1 S7I       0.068200
     33 H191       -14.5770   -18.2040     2.5410 hc         1 S7I       0.049950
     34 H192       -14.5120   -16.4680     2.2650 hc         1 S7I       0.049950
     35 H201       -12.8220   -18.4810     1.0220 hc         1 S7I       0.049950
     36 H202       -12.8590   -16.7820     0.5690 hc         1 S7I       0.049950
     37 H211       -13.6700   -18.7610    -1.2230 hc         1 S7I       0.068200
     38 H212       -14.3750   -17.1500    -1.2420 hc         1 S7I       0.068200
     39 H241       -18.0770   -19.3870     0.5460 ha         1 S7I       0.131500
     40 H051       -19.2300   -17.5460    -5.1990 ha         1 S7I       0.146000
     41 H071       -20.4750   -21.2140    -7.1980 h4         1 S7I       0.153000
     42 H111       -18.1850   -23.6600    -4.0370 ha         1 S7I       0.116000
     43 H121       -16.9140   -22.5270    -2.2350 ha         1 S7I       0.115000
     44 H251       -19.6760   -20.6190     1.9260 ha         1 S7I       0.133500
     45 H281       -16.5100   -23.0990     3.4750 ha         1 S7I       0.133500
     46 H291       -14.8590   -21.8620     2.0830 ha         1 S7I       0.131500
     47 H301       -18.1190   -18.6960    -3.8030 ha         1 S7I       0.147000
     48 H012       -21.3360   -14.9680    -8.6300 hn         1 S7I       0.472000
     49 H031       -19.8950   -15.7560    -5.7210 hn         1 S7I       0.391400
     50 H141       -16.1310   -20.6080    -1.3080 hn         1 S7I       0.169000
     51 H011       -21.3420   -16.5990    -9.1570 hn         1 S7I       0.472000
     52 C02        -20.7590   -16.2750    -7.2710 ce         1 S7I       0.685800
@<TRIPOS>BOND
     1     1    13 ar  
     2     1    14 ar  
     3     1    30 1   
     4     2    17 1   
     5     2    25 1   
     6     2    26 2   
     7     3     4 1   
     8     3    17 1   
     9     3    31 1   
    10     3    32 1   
    11     4     5 1   
    12     4    33 1   
    13     4    34 1   
    14     5     6 1   
    15     5    35 1   
    16     5    36 1   
    17     6    17 1   
    18     6    37 1   
    19     6    38 1   
    20     7     8 ar  
    21     7    21 ar  
    22     7    27 1   
    23     8    18 ar  
    24     8    39 1   
    25     9    10 2   
    26     9    28 1   
    27     9    52 1   
    28    10    11 1   
    29    10    40 1   
    30    11    12 2   
    31    11    13 1   
    32    12    28 1   
    33    12    41 1   
    34    13    22 ar  
    35    14    15 ar  
    36    14    42 1   
    37    15    16 ar  
    38    15    43 1   
    39    16    22 ar  
    40    16    25 1   
    41    17    27 1   
    42    18    19 ar  
    43    18    44 1   
    44    19    20 ar  
    45    19    29 1   
    46    20    21 ar  
    47    20    45 1   
    48    21    46 1   
    49    22    47 1   
    50    23    48 1   
    51    23    51 1   
    52    23    52 1   
    53    24    49 1   
    54    24    52 2   
    55    25    50 1   
@<TRIPOS>SUBSTRUCTURE
     1 S7I         1 TEMP              0 ****  ****    0 ROOT
