@<TRIPOS>MOLECULE
S7J
   17    17     1     0     0
SMALL
abcg2


@<TRIPOS>ATOM
      1 N1          40.0960     4.3090    73.4330 nb         1 S7J      -0.134000
      2 C4          37.8410     4.6170    74.8940 ca         1 S7J       0.145400
      3 C5          39.1290     5.6000    71.6550 c3         1 S7J       0.285700
      4 N           39.5730     2.3100    77.1200 nt         1 S7J      -0.598000
      5 C           38.7600     3.3260    76.8160 c          1 S7J       0.627700
      6 O           37.9490     3.8070    77.5910 o          1 S7J      -0.585100
      7 C1          38.8910     3.8840    75.4330 ca         1 S7J      -0.240600
      8 C2          40.0260     3.7690    74.6410 ca         1 S7J       0.145400
      9 C3          39.0280     4.9600    73.0230 ca         1 S7J       0.037300
     10 F           37.9330     5.7730    71.1020 f          1 S7J      -0.095000
     11 F1          39.8640     4.8610    70.8280 f          1 S7J      -0.095000
     12 F2          39.7110     6.8010    71.7480 f          1 S7J      -0.095000
     13 N2          37.9040     5.1520    73.6840 nb         1 S7J      -0.134000
     14 H1          36.9250     4.7690    75.4520 h4         1 S7J       0.045600
     15 H2          39.5290     1.8950    78.0370 hn         1 S7J       0.321000
     16 H3          40.1540     1.8470    76.4420 hn         1 S7J       0.321000
     17 H4          40.9130     3.2460    74.9800 h4         1 S7J       0.045600
@<TRIPOS>BOND
     1     1     8 ar  
     2     1     9 ar  
     3     2     7 ar  
     4     2    13 ar  
     5     2    14 1   
     6     3     9 1   
     7     3    10 1   
     8     3    11 1   
     9     3    12 1   
    10     4     5 1   
    11     4    15 1   
    12     4    16 1   
    13     5     6 2   
    14     5     7 1   
    15     7     8 ar  
    16     8    17 1   
    17     9    13 ar  
@<TRIPOS>SUBSTRUCTURE
     1 S7J         1 TEMP              0 ****  ****    0 ROOT
