@<TRIPOS>MOLECULE
S7J
   17    17     1     0     0
SMALL
No Charge or Current Charge


@<TRIPOS>ATOM
      1 N1          40.0380     4.1610    73.3770 nb         1 S7J      -0.134000
      2 C4          37.8410     4.7080    74.9470 ca         1 S7J       0.145400
      3 C5          39.1510     5.6450    71.6130 c3         1 S7J       0.285700
      4 N           39.6730     2.3930    77.2210 nt         1 S7J      -0.598000
      5 C           38.6950     3.2200    76.7960 c          1 S7J       0.627700
      6 O           37.7390     3.4380    77.5200 o          1 S7J      -0.585100
      7 C1          38.8330     3.8370    75.4390 ca         1 S7J      -0.240600
      8 C2          39.9370     3.5920    74.5950 ca         1 S7J       0.145400
      9 C3          39.0300     4.9780    72.9900 ca         1 S7J       0.037300
     10 F           37.9460     5.8320    71.0230 f          1 S7J      -0.095000
     11 F1          39.8930     4.9160    70.7450 f          1 S7J      -0.095000
     12 F2          39.7360     6.8600    71.7030 f          1 S7J      -0.095000
     13 N2          37.9370     5.2800    73.7290 nb         1 S7J      -0.134000
     14 H1          36.9550     4.9570    75.5290 h4         1 S7J       0.045600
     15 H2          39.5940     1.9700    78.1330 hn         1 S7J       0.321000
     16 H3          40.4710     2.2020    76.6350 hn         1 S7J       0.321000
     17 H4          40.7560     2.9370    74.8840 h4         1 S7J       0.045600
@<TRIPOS>BOND
     1     1     8 ar  
     2     1     9 ar  
     3     2     7 ar  
     4     2    13 ar  
     5     2    14 1   
     6     3     9 1   
     7     3    10 1   
     8     3    11 1   
     9     3    12 1   
    10     4     5 1   
    11     4    15 1   
    12     4    16 1   
    13     5     6 2   
    14     5     7 1   
    15     7     8 ar  
    16     8    17 1   
    17     9    13 ar  
@<TRIPOS>SUBSTRUCTURE
     1 S7J         1 TEMP              0 ****  ****    0 ROOT
