@<TRIPOS>MOLECULE
S7K
   52    54     1     0     0
SMALL
No Charge or Current Charge


@<TRIPOS>ATOM
      1 C1          -0.4680     1.1370    -0.3390 ca         1 S7K      -0.098000
      2 C2          -1.6660     1.8270    -0.0730 ca         1 S7K      -0.077300
      3 C3          -1.6140     3.1090     0.5040 ca         1 S7K      -0.103000
      4 C4          -0.3760     3.6970     0.8070 ca         1 S7K      -0.108000
      5 C5           0.8180     3.0060     0.5370 ca         1 S7K      -0.115000
      6 C6           0.7820     1.7160    -0.0360 ca         1 S7K      -0.123300
      7 N11         -5.9840     0.2870     0.9170 nb         1 S7K      -0.675000
      8 C12         -7.1830    -0.2740     0.6390 ca         1 S7K       0.341900
      9 C13         -7.3190    -1.4570    -0.1070 ca         1 S7K      -0.170000
     10 C14         -6.1690    -2.1000    -0.5930 ca         1 S7K      -0.034300
     11 C15         -4.9240    -1.5160    -0.3050 ca         1 S7K      -0.161000
     12 C16         -4.8740    -0.3290     0.4500 ca         1 S7K       0.351300
     13 C19         -3.0090     1.1850    -0.3980 c3         1 S7K      -0.028100
     14 N21          3.8080    -1.4780     0.9770 nb         1 S7K      -0.753000
     15 C22          4.7760    -2.3670     0.8210 ca         1 S7K       0.597900
     16 N22          4.3590    -3.5950     1.1340 nv         1 S7K      -1.050900
     17 C23          6.0760    -2.0770     0.4030 ca         1 S7K      -0.231000
     18 C24          6.4030    -0.7450     0.1130 ca         1 S7K       0.000700
     19 C25          5.3900     0.2150     0.2690 ca         1 S7K      -0.207000
     20 C26          4.1080    -0.1880     0.6950 ca         1 S7K       0.417300
     21 C28          2.9930     0.8260     0.8950 c3         1 S7K      -0.120700
     22 C29          2.0680     0.9460    -0.3340 c3         1 S7K       0.213800
     23 N29          2.7660     1.5880    -1.4600 n8         1 S7K      -0.990200
     24 H1          -0.5100     0.1440    -0.7820 ha         1 S7K       0.113000
     25 H3          -2.5330     3.6500     0.7190 ha         1 S7K       0.116000
     26 H4          -0.3400     4.6890     1.2510 ha         1 S7K       0.112000
     27 H5           1.7680     3.4780     0.7750 ha         1 S7K       0.105000
     28 H12         -8.0620     0.2410     1.0250 h4         1 S7K       0.017100
     29 H13         -8.3090    -1.8610    -0.3020 ha         1 S7K       0.121000
     30 H15         -4.0040    -1.9710    -0.6630 ha         1 S7K       0.121000
     31 H17         -6.3220    -3.1540    -2.4810 hc         1 S7K       0.047367
     32 H17A        -5.3950    -4.0240    -1.2460 hc         1 S7K       0.047367
     33 H17B        -7.1590    -3.9570    -1.1410 hc         1 S7K       0.047367
     34 H19         -3.7480     1.9580    -0.6440 hc         1 S7K       0.055200
     35 H19A        -2.9180     0.5560    -1.2920 hc         1 S7K       0.055200
     36 H23          6.8140    -2.8680     0.3050 ha         1 S7K       0.117000
     37 H25          5.5860     1.2630     0.0610 ha         1 S7K       0.118000
     38 H28          2.3860     0.5340     1.7610 hc         1 S7K       0.054200
     39 H28A         3.4180     1.8050     1.1430 hc         1 S7K       0.054200
     40 H29          1.7940    -0.0760    -0.6410 h1         1 S7K       0.084700
     41 HN29         2.1200     1.6260    -2.2560 hn         1 S7K       0.395500
     42 HN2B         2.9050     2.5760    -1.2270 hn         1 S7K       0.395500
     43 HN22         3.4840    -3.6290     1.6420 hn         1 S7K       0.463000
     44 HN23         5.0600    -4.2810     1.3880 hn         1 S7K       0.463000
     45 C27          7.7980    -0.3530    -0.3440 c3         1 S7K      -0.052800
     46 C18         -3.5420     0.3320     0.7720 c3         1 S7K      -0.124700
     47 C17         -6.2670    -3.3790    -1.4090 c3         1 S7K      -0.052800
     48 H18         -3.6340     0.9640     1.6640 hc         1 S7K       0.058200
     49 H18A        -2.8020    -0.4380     1.0200 hc         1 S7K       0.058200
     50 H27          7.7680     0.5070    -1.0230 hc         1 S7K       0.045367
     51 H27A         8.4270    -0.0840     0.5120 hc         1 S7K       0.045367
     52 H27B         8.2890    -1.1760    -0.8770 hc         1 S7K       0.045367
@<TRIPOS>BOND
     1     1     2 ar  
     2     1     6 ar  
     3     1    24 1   
     4     2     3 ar  
     5     2    13 1   
     6     3     4 ar  
     7     3    25 1   
     8     4     5 ar  
     9     4    26 1   
    10     5     6 ar  
    11     5    27 1   
    12     6    22 1   
    13     7     8 ar  
    14     7    12 ar  
    15     8     9 ar  
    16     8    28 1   
    17     9    10 ar  
    18     9    29 1   
    19    10    11 ar  
    20    10    47 1   
    21    11    12 ar  
    22    11    30 1   
    23    12    46 1   
    24    13    34 1   
    25    13    35 1   
    26    13    46 1   
    27    14    15 ar  
    28    14    20 ar  
    29    15    16 1   
    30    15    17 ar  
    31    16    43 1   
    32    16    44 1   
    33    17    18 ar  
    34    17    36 1   
    35    18    19 ar  
    36    18    45 1   
    37    19    20 ar  
    38    19    37 1   
    39    20    21 1   
    40    21    22 1   
    41    21    38 1   
    42    21    39 1   
    43    22    23 1   
    44    22    40 1   
    45    23    41 1   
    46    23    42 1   
    47    31    47 1   
    48    32    47 1   
    49    33    47 1   
    50    45    50 1   
    51    45    51 1   
    52    45    52 1   
    53    46    48 1   
    54    46    49 1   
@<TRIPOS>SUBSTRUCTURE
     1 S7K         1 TEMP              0 ****  ****    0 ROOT
