@<TRIPOS>MOLECULE
S7K
   52    54     1     0     0
SMALL
abcg2


@<TRIPOS>ATOM
      1 C1          -0.4600     1.2710    -0.6180 ca         1 S7K      -0.098000
      2 C2          -1.6560     1.9420    -0.3710 ca         1 S7K      -0.077300
      3 C3          -1.5990     3.2760     0.0230 ca         1 S7K      -0.103000
      4 C4          -0.3740     3.9150     0.1620 ca         1 S7K      -0.108000
      5 C5           0.8060     3.2310    -0.0900 ca         1 S7K      -0.115000
      6 C6           0.7750     1.8950    -0.4820 ca         1 S7K      -0.123300
      7 N11         -5.6700     0.4050     0.8440 nb         1 S7K      -0.675000
      8 C12         -6.8640    -0.1580     0.7050 ca         1 S7K       0.341900
      9 C13         -7.0550    -1.4720     0.3130 ca         1 S7K      -0.170000
     10 C14         -5.9420    -2.2640     0.0450 ca         1 S7K      -0.034300
     11 C15         -4.6940    -1.6700     0.1970 ca         1 S7K      -0.161000
     12 C16         -4.5950    -0.3410     0.5940 ca         1 S7K       0.351300
     13 C19         -2.9720     1.2280    -0.4980 c3         1 S7K      -0.028100
     14 N21          3.5470    -1.4780    -0.1460 nb         1 S7K      -0.753000
     15 C22          4.5660    -2.3120    -0.3170 ca         1 S7K       0.597900
     16 N22          4.3150    -3.4710    -0.9970 nv         1 S7K      -1.050900
     17 C23          5.8630    -2.0160     0.1370 ca         1 S7K      -0.231000
     18 C24          6.0910    -0.8150     0.7770 ca         1 S7K       0.000700
     19 C25          5.0100     0.0570     0.9440 ca         1 S7K      -0.207000
     20 C26          3.7670    -0.3150     0.4690 ca         1 S7K       0.417300
     21 C28          2.5730     0.5830     0.6270 c3         1 S7K      -0.120700
     22 C29          2.0510     1.1070    -0.7160 c3         1 S7K       0.213800
     23 N29          3.1140     1.8160    -1.4030 n8         1 S7K      -0.990200
     24 H1          -0.4920     0.2310    -0.9300 ha         1 S7K       0.113000
     25 H3          -2.5180     3.8170     0.2160 ha         1 S7K       0.116000
     26 H4          -0.3400     4.9540     0.4630 ha         1 S7K       0.112000
     27 H5           1.7520     3.7490     0.0190 ha         1 S7K       0.105000
     28 H12         -7.7210     0.4710     0.9230 h4         1 S7K       0.017100
     29 H13         -8.0580    -1.8680     0.2200 ha         1 S7K       0.121000
     30 H15         -3.7910    -2.2410     0.0110 ha         1 S7K       0.121000
     31 H17         -6.2260    -3.7290    -1.4870 hc         1 S7K       0.047367
     32 H17A        -5.1970    -4.2700    -0.1690 hc         1 S7K       0.047367
     33 H17B        -6.9470    -4.1650     0.0550 hc         1 S7K       0.047367
     34 H19         -3.7800     1.9550    -0.6030 hc         1 S7K       0.055200
     35 H19A        -2.9780     0.6130    -1.4020 hc         1 S7K       0.055200
     36 H23          6.6660    -2.7280    -0.0150 ha         1 S7K       0.117000
     37 H25          5.1410     1.0100     1.4420 ha         1 S7K       0.118000
     38 H28          1.7700     0.0330     1.1250 hc         1 S7K       0.054200
     39 H28A         2.8230     1.4290     1.2740 hc         1 S7K       0.054200
     40 H29          1.7920     0.2360    -1.3270 h1         1 S7K       0.084700
     41 HN29         2.7640     2.2170    -2.2640 hn         1 S7K       0.395500
     42 HN2B         3.4480     2.5920    -0.8430 hn         1 S7K       0.395500
     43 HN22         3.3480    -3.7500    -1.0430 hn         1 S7K       0.463000
     44 HN23         4.9480    -4.2390    -0.8450 hn         1 S7K       0.463000
     45 C27          7.4550    -0.4380     1.2690 c3         1 S7K      -0.052800
     46 C18         -3.2600     0.3340     0.7170 c3         1 S7K      -0.124700
     47 C17         -6.0840    -3.6850    -0.4050 c3         1 S7K      -0.052800
     48 H18         -3.2440     0.9440     1.6230 hc         1 S7K       0.058200
     49 H18A        -2.4690    -0.4140     0.8150 hc         1 S7K       0.058200
     50 H27          7.8560     0.3900     0.6830 hc         1 S7K       0.045367
     51 H27A         7.4200    -0.1060     2.3070 hc         1 S7K       0.045367
     52 H27B         8.1560    -1.2680     1.1980 hc         1 S7K       0.045367
@<TRIPOS>BOND
     1     1     2 ar  
     2     1     6 ar  
     3     1    24 1   
     4     2     3 ar  
     5     2    13 1   
     6     3     4 ar  
     7     3    25 1   
     8     4     5 ar  
     9     4    26 1   
    10     5     6 ar  
    11     5    27 1   
    12     6    22 1   
    13     7     8 ar  
    14     7    12 ar  
    15     8     9 ar  
    16     8    28 1   
    17     9    10 ar  
    18     9    29 1   
    19    10    11 ar  
    20    10    47 1   
    21    11    12 ar  
    22    11    30 1   
    23    12    46 1   
    24    13    34 1   
    25    13    35 1   
    26    13    46 1   
    27    14    15 ar  
    28    14    20 ar  
    29    15    16 1   
    30    15    17 ar  
    31    16    43 1   
    32    16    44 1   
    33    17    18 ar  
    34    17    36 1   
    35    18    19 ar  
    36    18    45 1   
    37    19    20 ar  
    38    19    37 1   
    39    20    21 1   
    40    21    22 1   
    41    21    38 1   
    42    21    39 1   
    43    22    23 1   
    44    22    40 1   
    45    23    41 1   
    46    23    42 1   
    47    31    47 1   
    48    32    47 1   
    49    33    47 1   
    50    45    50 1   
    51    45    51 1   
    52    45    52 1   
    53    46    48 1   
    54    46    49 1   
@<TRIPOS>SUBSTRUCTURE
     1 S7K         1 TEMP              0 ****  ****    0 ROOT
