@<TRIPOS>MOLECULE
S7L
   48    51     1     0     0
SMALL
abcg2


@<TRIPOS>ATOM
      1 C10         15.7180   -21.5230     0.6060 cc         1 S7L      -0.106500
      2 C13         17.2570   -21.9590     4.6480 cc         1 S7L      -0.041000
      3 C15         19.8450   -23.8730     5.8940 ca         1 S7L      -0.184300
      4 C17         20.7740   -22.9940     5.3430 ca         1 S7L      -0.084250
      5 C20         14.5730   -21.2070    -4.1620 ca         1 S7L      -0.084250
      6 C21         22.0490   -23.4350     5.0290 ca         1 S7L      -0.093500
      7 C22         15.4220   -23.7730    -4.7920 ca         1 S7L      -0.093500
      8 C24         15.3760   -21.4180    -5.2760 ca         1 S7L      -0.093500
      9 C26         15.8030   -22.7000    -5.5900 ca         1 S7L      -0.052500
     10 C03         16.2360   -22.8240     2.6670 cd         1 S7L       0.035500
     11 C04         15.4780   -22.6290     1.4200 cc         1 S7L       0.035500
     12 C07         16.6620   -24.0940     3.0530 cd         1 S7L      -0.106500
     13 C08         14.5050   -23.5400     1.0250 cc         1 S7L      -0.106500
     14 C09         16.5450   -21.7470     3.4900 cd         1 S7L      -0.106500
     15 C11         17.3770   -24.2440     4.2150 cc         1 S7L      -0.041000
     16 C12         13.8070   -23.3250    -0.1400 cd         1 S7L      -0.041000
     17 C14         14.9950   -21.3640    -0.5490 cd         1 S7L      -0.041000
     18 C16         14.1880   -22.2770    -3.3620 ca         1 S7L      -0.184300
     19 C18         14.6150   -23.5630    -3.6850 ca         1 S7L      -0.084250
     20 C19         20.2090   -25.1930     6.1350 ca         1 S7L      -0.084250
     21 C23         21.4890   -25.6340     5.8240 ca         1 S7L      -0.093500
     22 C25         22.4080   -24.7570     5.2690 ca         1 S7L      -0.052500
     23 N01         17.6630   -23.1870     4.9870 na         1 S7L       0.136500
     24 N02         14.0570   -22.2550    -0.9010 na         1 S7L       0.136500
     25 H1          16.4710   -20.7870     0.8490 ha         1 S7L       0.176000
     26 H2          17.5100   -21.1530     5.3210 h4         1 S7L       0.201000
     27 H3          20.5010   -21.9610     5.1590 ha         1 S7L       0.113750
     28 H5          22.7670   -22.7470     4.6010 ha         1 S7L       0.143750
     29 H6          15.7480   -24.7750    -5.0370 ha         1 S7L       0.143750
     30 H7          15.6680   -20.5800    -5.8950 ha         1 S7L       0.143750
     31 H8          16.4300   -22.8660    -6.4560 ha         1 S7L       0.147000
     32 H13         16.4650   -24.9700     2.4530 ha         1 S7L       0.176000
     33 H14         14.2580   -24.4090     1.6180 ha         1 S7L       0.176000
     34 H15         16.2260   -20.7400     3.2600 ha         1 S7L       0.176000
     35 H16         17.7350   -25.2080     4.5470 h4         1 S7L       0.201000
     36 H17         13.0340   -24.0010    -0.4770 h4         1 S7L       0.201000
     37 H18         15.1490   -20.5250    -1.2130 h4         1 S7L       0.201000
     38 H19         14.3110   -24.4070    -3.0760 ha         1 S7L       0.113750
     39 H20         19.4910   -25.8790     6.5700 ha         1 S7L       0.113750
     40 H21         21.7650   -26.6630     6.0170 ha         1 S7L       0.143750
     41 H22         23.4060   -25.0990     5.0260 ha         1 S7L       0.147000
     42 C05         18.4580   -23.4010     6.2220 c3         1 S7L       0.089400
     43 C06         13.3110   -22.0450    -2.1650 c3         1 S7L       0.089400
     44 H4          14.2400   -20.2050    -3.9190 ha         1 S7L       0.113750
     45 H9          18.4700   -22.4560     6.7600 h1         1 S7L       0.104950
     46 H10         17.9200   -24.1280     6.8290 h1         1 S7L       0.104950
     47 H11         12.9240   -21.0270    -2.1440 h1         1 S7L       0.104950
     48 H12         12.4610   -22.7240    -2.1480 h1         1 S7L       0.104950
@<TRIPOS>BOND
     1     1    11 1   
     2     1    17 2   
     3     1    25 1   
     4     2    14 2   
     5     2    23 1   
     6     2    26 1   
     7     3     4 ar  
     8     3    20 ar  
     9     3    42 1   
    10     4     6 ar  
    11     4    27 1   
    12     5     8 ar  
    13     5    18 ar  
    14     5    44 1   
    15     6    22 ar  
    16     6    28 1   
    17     7     9 ar  
    18     7    19 ar  
    19     7    29 1   
    20     8     9 ar  
    21     8    30 1   
    22     9    31 1   
    23    10    11 2   
    24    10    12 1   
    25    10    14 1   
    26    11    13 1   
    27    12    15 2   
    28    12    32 1   
    29    13    16 2   
    30    13    33 1   
    31    14    34 1   
    32    15    23 1   
    33    15    35 1   
    34    16    24 1   
    35    16    36 1   
    36    17    24 1   
    37    17    37 1   
    38    18    19 ar  
    39    18    43 1   
    40    19    38 1   
    41    20    21 ar  
    42    20    39 1   
    43    21    22 ar  
    44    21    40 1   
    45    22    41 1   
    46    23    42 1   
    47    24    43 1   
    48    42    45 1   
    49    42    46 1   
    50    43    47 1   
    51    43    48 1   
@<TRIPOS>SUBSTRUCTURE
     1 S7L         1 TEMP              0 ****  ****    0 ROOT
