@<TRIPOS>MOLECULE
S7L
   48    51     1     0     0
SMALL
No Charge or Current Charge


@<TRIPOS>ATOM
      1 C10         15.5810   -21.5650     0.5690 cc         1 S7L      -0.106500
      2 C13         17.7340   -21.8480     4.3010 cc         1 S7L      -0.041000
      3 C15         19.9220   -23.9110     6.0440 ca         1 S7L      -0.184300
      4 C17         20.7490   -23.6220     4.9360 ca         1 S7L      -0.084250
      5 C20         13.7850   -21.2400    -4.4730 ca         1 S7L      -0.084250
      6 C21         21.9910   -24.2650     4.7920 ca         1 S7L      -0.093500
      7 C22         15.9550   -22.9760    -4.8900 ca         1 S7L      -0.093500
      8 C24         14.5720   -21.1180    -5.6320 ca         1 S7L      -0.093500
      9 C26         15.6580   -21.9850    -5.8410 ca         1 S7L      -0.052500
     10 C03         16.2820   -22.8490     2.5910 cd         1 S7L       0.035500
     11 C04         15.5270   -22.7300     1.4020 cc         1 S7L       0.035500
     12 C07         16.3680   -24.0890     3.2980 cd         1 S7L      -0.106500
     13 C08         14.6510   -23.7650     0.9380 cc         1 S7L      -0.106500
     14 C09         16.9960   -21.7360     3.1370 cd         1 S7L      -0.106500
     15 C11         17.1050   -24.2100     4.4620 cc         1 S7L      -0.041000
     16 C12         13.9090   -23.6580    -0.2230 cd         1 S7L      -0.041000
     17 C14         14.8480   -21.4390    -0.5960 cd         1 S7L      -0.041000
     18 C16         14.0810   -22.2280    -3.5120 ca         1 S7L      -0.184300
     19 C18         15.1700   -23.0990    -3.7300 ca         1 S7L      -0.084250
     20 C19         20.3620   -24.8440     7.0050 ca         1 S7L      -0.084250
     21 C23         21.6040   -25.4850     6.8580 ca         1 S7L      -0.093500
     22 C25         22.4190   -25.1980     5.7510 ca         1 S7L      -0.052500
     23 N01         17.7840   -23.0870     4.9760 na         1 S7L       0.136500
     24 N02         13.9980   -22.4870    -1.0050 na         1 S7L       0.136500
     25 H1          16.2340   -20.7370     0.8080 ha         1 S7L       0.176000
     26 H2          18.2820   -21.0260     4.7450 h4         1 S7L       0.201000
     27 H3          20.4390   -22.8990     4.1850 ha         1 S7L       0.113750
     28 H5          22.6230   -24.0390     3.9350 ha         1 S7L       0.143750
     29 H6          16.7940   -23.6500    -5.0520 ha         1 S7L       0.143750
     30 H7          14.3390   -20.3520    -6.3690 ha         1 S7L       0.143750
     31 H8          16.2660   -21.8910    -6.7380 ha         1 S7L       0.147000
     32 H13         15.8930   -24.9950     2.9480 ha         1 S7L       0.176000
     33 H14         14.5130   -24.6740     1.5050 ha         1 S7L       0.176000
     34 H15         16.9740   -20.7530     2.6890 ha         1 S7L       0.176000
     35 H16         17.2070   -25.1340     5.0180 h4         1 S7L       0.201000
     36 H17         13.2400   -24.4360    -0.5740 h4         1 S7L       0.201000
     37 H18         14.8920   -20.5680    -1.2410 h4         1 S7L       0.201000
     38 H19         15.4100   -23.8750    -3.0060 ha         1 S7L       0.113750
     39 H20         19.7420   -25.0760     7.8700 ha         1 S7L       0.113750
     40 H21         21.9350   -26.2050     7.6040 ha         1 S7L       0.143750
     41 H22         23.3810   -25.6940     5.6380 ha         1 S7L       0.147000
     42 C05         18.5670   -23.2210     6.2220 c3         1 S7L       0.089400
     43 C06         13.2200   -22.3540    -2.2530 c3         1 S7L       0.089400
     44 H4          12.9460   -20.5620    -4.3250 ha         1 S7L       0.113750
     45 H9          18.7280   -22.2240     6.6520 h1         1 S7L       0.104950
     46 H10         17.9580   -23.7780     6.9450 h1         1 S7L       0.104950
     47 H11         12.5740   -21.4720    -2.1530 h1         1 S7L       0.104950
     48 H12         12.5570   -23.2210    -2.3630 h1         1 S7L       0.104950
@<TRIPOS>BOND
     1     1    11 1   
     2     1    17 2   
     3     1    25 1   
     4     2    14 2   
     5     2    23 1   
     6     2    26 1   
     7     3     4 ar  
     8     3    20 ar  
     9     3    42 1   
    10     4     6 ar  
    11     4    27 1   
    12     5     8 ar  
    13     5    18 ar  
    14     5    44 1   
    15     6    22 ar  
    16     6    28 1   
    17     7     9 ar  
    18     7    19 ar  
    19     7    29 1   
    20     8     9 ar  
    21     8    30 1   
    22     9    31 1   
    23    10    11 2   
    24    10    12 1   
    25    10    14 1   
    26    11    13 1   
    27    12    15 2   
    28    12    32 1   
    29    13    16 2   
    30    13    33 1   
    31    14    34 1   
    32    15    23 1   
    33    15    35 1   
    34    16    24 1   
    35    16    36 1   
    36    17    24 1   
    37    17    37 1   
    38    18    19 ar  
    39    18    43 1   
    40    19    38 1   
    41    20    21 ar  
    42    20    39 1   
    43    21    22 ar  
    44    21    40 1   
    45    22    41 1   
    46    23    42 1   
    47    24    43 1   
    48    42    45 1   
    49    42    46 1   
    50    43    47 1   
    51    43    48 1   
@<TRIPOS>SUBSTRUCTURE
     1 S7L         1 TEMP              0 ****  ****    0 ROOT
