@<TRIPOS>MOLECULE
S7O
   28    29     1     0     0
SMALL
abcg2


@<TRIPOS>ATOM
      1 C16        -44.4840   -32.0530     3.0650 c          1 S7O       0.692000
      2 C15        -45.0970   -31.2650     1.8760 c3         1 S7O      -0.076000
      3 C12        -49.7190   -29.0060     3.4820 c          1 S7O       0.559800
      4 C10        -47.2670   -29.0230     2.9630 cc         1 S7O      -0.011000
      5 C01        -43.3680   -29.8000     0.8700 c3         1 S7O       0.082300
      6 C03        -44.7990   -28.9450     2.5980 c          1 S7O       0.612700
      7 C04        -46.0110   -29.0840     3.4800 cd         1 S7O      -0.119600
      8 C05        -45.8370   -29.1680     4.8880 cd         1 S7O       0.115000
      9 C06        -46.9040   -29.1920     5.7470 cc         1 S7O      -0.179000
     10 C07        -48.1780   -29.1110     5.1760 cc         1 S7O       0.112000
     11 N02        -44.5600   -29.9190     1.7030 n          1 S7O      -0.336800
     12 N08        -49.4000   -29.0610     5.7190 na         1 S7O      -0.242300
     13 N09        -50.3250   -29.0980     4.6920 ns         1 S7O      -0.512700
     14 N11        -48.3230   -29.0480     3.8250 n          1 S7O       0.029200
     15 O14        -44.1170   -27.9250     2.7180 o          1 S7O      -0.608100
     16 O17        -43.7710   -31.4190     3.8750 o          1 S7O      -0.708000
     17 O18        -44.7990   -33.2660     3.1040 o          1 S7O      -0.708000
     18 H151       -46.1750   -31.2310     2.0270 h1         1 S7O       0.042700
     19 H152       -44.9250   -31.8170     0.9540 h1         1 S7O       0.042700
     20 H101       -47.5120   -28.9600     1.9130 h4         1 S7O       0.198000
     21 H013       -43.2090   -28.7580     0.6080 h1         1 S7O       0.051700
     22 H012       -42.4850   -30.1720     1.3960 h1         1 S7O       0.051700
     23 H011       -43.5160   -30.3860    -0.0350 h1         1 S7O       0.051700
     24 H051       -44.8320   -29.2190     5.2800 ha         1 S7O       0.201000
     25 H061       -46.7930   -29.2600     6.8190 ha         1 S7O       0.170000
     26 H1         -49.6520   -29.4500     6.6200 hn         1 S7O       0.408000
     27 H091       -51.2920   -28.8710     4.8810 hn         1 S7O       0.517000
     28 O13        -50.1760   -28.9100     2.3710 o          1 S7O      -0.433000
@<TRIPOS>BOND
     1     1     2 1   
     2     1    16 1   
     3     1    17 1   
     4     2    11 1   
     5     2    18 1   
     6     2    19 1   
     7     3    13 1   
     8     3    14 1   
     9     3    28 2   
    10     4     7 2   
    11     4    14 1   
    12     4    20 1   
    13     5    11 1   
    14     5    21 1   
    15     5    22 1   
    16     5    23 1   
    17     6     7 1   
    18     6    11 1   
    19     6    15 2   
    20     7     8 1   
    21     8     9 2   
    22     8    24 1   
    23     9    10 1   
    24     9    25 1   
    25    10    12 2   
    26    10    14 1   
    27    12    13 1   
    28    12    26 1   
    29    13    27 1   
@<TRIPOS>SUBSTRUCTURE
     1 S7O         1 TEMP              0 ****  ****    0 ROOT
