@<TRIPOS>MOLECULE
S7O
   28    29     1     0     0
SMALL
No Charge or Current Charge


@<TRIPOS>ATOM
      1 C16        -45.2370   -32.0450     2.7900 c          1 S7O       0.692000
      2 C15        -45.1110   -31.1580     1.5230 c3         1 S7O      -0.076000
      3 C12        -49.4890   -29.7720     3.5940 c          1 S7O       0.559800
      4 C10        -47.0160   -29.4310     3.1870 cc         1 S7O      -0.011000
      5 C01        -43.3830   -29.5060     0.7420 c3         1 S7O       0.082300
      6 C03        -44.5150   -29.0910     2.9290 c          1 S7O       0.612700
      7 C04        -45.7760   -29.0950     3.7360 cd         1 S7O      -0.119600
      8 C05        -45.7490   -28.6540     5.1250 cd         1 S7O       0.115000
      9 C06        -46.9160   -28.6220     5.8730 cc         1 S7O      -0.179000
     10 C07        -48.1340   -29.0150     5.2540 cc         1 S7O       0.112000
     11 N02        -44.4700   -29.8110     1.7000 n          1 S7O      -0.336800
     12 N08        -49.4040   -29.0930     5.7530 na         1 S7O      -0.242300
     13 N09        -50.2620   -29.6030     4.7380 ns         1 S7O      -0.512700
     14 N11        -48.1700   -29.4370     3.9600 n          1 S7O       0.029200
     15 O14        -43.5340   -28.4620     3.3100 o          1 S7O      -0.608100
     16 O17        -44.2420   -32.2130     3.4800 o          1 S7O      -0.708000
     17 O18        -46.3330   -32.5130     3.0550 o          1 S7O      -0.708000
     18 H151       -46.0980   -31.0430     1.0600 h1         1 S7O       0.042700
     19 H152       -44.5110   -31.7400     0.8120 h1         1 S7O       0.042700
     20 H101       -47.2290   -29.6940     2.1610 h4         1 S7O       0.198000
     21 H013       -43.2380   -28.4200     0.6700 h1         1 S7O       0.051700
     22 H012       -42.4490   -29.9740     1.0800 h1         1 S7O       0.051700
     23 H011       -43.6380   -29.8900    -0.2540 h1         1 S7O       0.051700
     24 H051       -44.8110   -28.3540     5.5850 ha         1 S7O       0.201000
     25 H061       -46.9150   -28.3020     6.9100 ha         1 S7O       0.170000
     26 H1         -49.7550   -29.0420     6.7120 hn         1 S7O       0.408000
     27 H091       -51.2460   -29.3380     4.6370 hn         1 S7O       0.517000
     28 O13        -49.8960   -30.0980     2.4910 o          1 S7O      -0.433000
@<TRIPOS>BOND
     1     1     2 1   
     2     1    16 1   
     3     1    17 1   
     4     2    11 1   
     5     2    18 1   
     6     2    19 1   
     7     3    13 1   
     8     3    14 1   
     9     3    28 2   
    10     4     7 2   
    11     4    14 1   
    12     4    20 1   
    13     5    11 1   
    14     5    21 1   
    15     5    22 1   
    16     5    23 1   
    17     6     7 1   
    18     6    11 1   
    19     6    15 2   
    20     7     8 1   
    21     8     9 2   
    22     8    24 1   
    23     9    10 1   
    24     9    25 1   
    25    10    12 2   
    26    10    14 1   
    27    12    13 1   
    28    12    26 1   
    29    13    27 1   
@<TRIPOS>SUBSTRUCTURE
     1 S7O         1 TEMP              0 ****  ****    0 ROOT
