@<TRIPOS>MOLECULE
S7R
   55    58     1     0     0
SMALL
abcg2


@<TRIPOS>ATOM
      1 C10         18.7500    21.8020    -5.3210 ca         1 S7R      -0.126000
      2 C11         18.0660    22.6420    -4.4510 ca         1 S7R      -0.082000
      3 C12         17.2730    22.1190    -3.4410 ca         1 S7R      -0.161000
      4 C13         17.1550    20.7330    -3.2960 ca         1 S7R      -0.021000
      5 C15         16.1270    19.0020    -1.8190 c          1 S7R       0.601100
      6 C17         15.1490    18.9150    -0.6240 c6         1 S7R       0.154200
      7 C18         15.4200    17.6520     0.2150 c6         1 S7R      -0.085900
      8 C19         14.3020    17.4100     1.2210 c6         1 S7R       0.156800
      9 C21         12.6670    18.4800    -0.1980 c6         1 S7R       0.156800
     10 C22         13.7330    18.8000    -1.2410 c6         1 S7R      -0.085900
     11 C24         16.2380    20.4960     1.0110 ca         1 S7R       0.295000
     12 C25         17.5570    20.0620     0.8160 ca         1 S7R      -0.167000
     13 C26         18.5780    20.4900     1.6560 ca         1 S7R      -0.061500
     14 C29         16.9990    21.8060     2.9130 ca         1 S7R      -0.061500
     15 C27         18.2970    21.3590     2.6980 ca         1 S7R       0.083000
     16 C31         17.8330    19.8870    -4.1730 ca         1 S7R      -0.131000
     17 C04         20.3740    17.5130    -6.7820 cc         1 S7R      -0.286900
     18 C05         19.7190    18.1640    -5.7720 cd         1 S7R      -0.097000
     19 C06         19.3470    19.5030    -6.1020 cd         1 S7R      -0.065000
     20 C07         19.7390    19.8230    -7.3810 cc         1 S7R      -0.251000
     21 C09         18.6360    20.4150    -5.1890 ca         1 S7R       0.018000
     22 C30         15.9830    21.3730     2.0780 ca         1 S7R      -0.167000
     23 N01         20.5710    15.3470    -5.7560 nv         1 S7R      -1.078200
     24 N03         21.7050    15.8140    -7.7780 n2         1 S7R      -0.846100
     25 N14         16.3380    20.2670    -2.2550 ns         1 S7R      -0.136000
     26 N20         13.0240    17.2600     0.5230 n7         1 S7R      -0.862400
     27 N23         15.1930    20.1470     0.1650 nu         1 S7R      -0.972200
     28 O16         16.6030    17.9970    -2.3340 o          1 S7R      -0.591100
     29 S08         20.5450    18.5340    -8.1690 ss         1 S7R       0.313000
     30 CL28        19.5900    21.8980     3.7560 cl         1 S7R      -0.213000
     31 H101        19.3840    22.2240    -6.0890 ha         1 S7R       0.116000
     32 H111        18.1590    23.7150    -4.5540 ha         1 S7R       0.114000
     33 H121        16.7460    22.7750    -2.7580 ha         1 S7R       0.113000
     34 H181        15.4940    16.8000    -0.4590 hc         1 S7R       0.071700
     35 H182        16.3720    17.7410     0.7370 hc         1 S7R       0.071700
     36 H191        14.5060    16.4950     1.7790 h1         1 S7R       0.033950
     37 H192        14.2780    18.2380     1.9480 h1         1 S7R       0.033950
     38 H212        12.5320    19.3360     0.4830 h1         1 S7R       0.033950
     39 H211        11.7110    18.3280    -0.7030 h1         1 S7R       0.033950
     40 H222        13.4870    19.7300    -1.7570 hc         1 S7R       0.071700
     41 H221        13.7580    17.9990    -1.9800 hc         1 S7R       0.071700
     42 H251        17.8090    19.3880     0.0120 ha         1 S7R       0.120500
     43 H261        19.5900    20.1440     1.4910 ha         1 S7R       0.130500
     44 H291        16.7810    22.4800     3.7300 ha         1 S7R       0.130500
     45 H311        17.7210    18.8220    -4.0640 ha         1 S7R       0.146000
     46 H051        19.5330    17.7230    -4.8040 ha         1 S7R       0.140000
     47 H071        19.5730    20.7500    -7.9080 h4         1 S7R       0.150000
     48 H301        14.9700    21.7170     2.2490 ha         1 S7R       0.120500
     49 H012        19.7270    15.5540    -5.2470 hn         1 S7R       0.468500
     50 H031        21.9920    14.8390    -7.6990 hn         1 S7R       0.375400
     51 H141        15.8910    20.9760    -1.6880 hn         1 S7R       0.172000
     52 H201        12.2950    17.0360     1.1900 hn         1 S7R       0.416000
     53 H231        14.2910    20.4440     0.5050 hn         1 S7R       0.470000
     54 H011        20.7960    14.3660    -5.8250 hn         1 S7R       0.468500
     55 C02         20.9210    16.1460    -6.8120 ce         1 S7R       0.695800
@<TRIPOS>BOND
     1     1     2 ar  
     2     1    21 ar  
     3     1    31 1   
     4     2     3 ar  
     5     2    32 1   
     6     3     4 ar  
     7     3    33 1   
     8     4    16 ar  
     9     4    25 1   
    10     5     6 1   
    11     5    25 1   
    12     5    28 2   
    13     6     7 1   
    14     6    10 1   
    15     6    27 1   
    16     7     8 1   
    17     7    34 1   
    18     7    35 1   
    19     8    26 1   
    20     8    36 1   
    21     8    37 1   
    22     9    10 1   
    23     9    26 1   
    24     9    38 1   
    25     9    39 1   
    26    10    40 1   
    27    10    41 1   
    28    11    12 ar  
    29    11    22 ar  
    30    11    27 1   
    31    12    13 ar  
    32    12    42 1   
    33    13    15 ar  
    34    13    43 1   
    35    14    15 ar  
    36    14    22 ar  
    37    14    44 1   
    38    15    30 1   
    39    16    21 ar  
    40    16    45 1   
    41    17    18 2   
    42    17    29 1   
    43    17    55 1   
    44    18    19 1   
    45    18    46 1   
    46    19    20 2   
    47    19    21 1   
    48    20    29 1   
    49    20    47 1   
    50    22    48 1   
    51    23    49 1   
    52    23    54 1   
    53    23    55 1   
    54    24    50 1   
    55    24    55 2   
    56    25    51 1   
    57    26    52 1   
    58    27    53 1   
@<TRIPOS>SUBSTRUCTURE
     1 S7R         1 TEMP              0 ****  ****    0 ROOT
