@<TRIPOS>MOLECULE
S7R
   55    58     1     0     0
SMALL
No Charge or Current Charge


@<TRIPOS>ATOM
      1 C10         16.8180    19.0460    -6.7760 ca         1 S7R      -0.126000
      2 C11         15.4470    19.0130    -6.4800 ca         1 S7R      -0.082000
      3 C12         15.0090    19.1870    -5.1600 ca         1 S7R      -0.161000
      4 C13         15.9340    19.4040    -4.1250 ca         1 S7R      -0.021000
      5 C15         15.9870    20.0940    -1.6460 c          1 S7R       0.601100
      6 C17         15.0940    20.0070    -0.3210 c6         1 S7R       0.154200
      7 C18         13.9600    18.9220    -0.4320 c6         1 S7R      -0.085900
      8 C19         12.9610    18.9790     0.7490 c6         1 S7R       0.156800
      9 C21         13.3030    21.3960     0.9640 c6         1 S7R       0.156800
     10 C22         14.3490    21.3750    -0.1810 c6         1 S7R      -0.085900
     11 C24         16.8590    18.7600     1.0530 ca         1 S7R       0.295000
     12 C25         16.4620    17.4270     1.2600 ca         1 S7R      -0.167000
     13 C26         17.4260    16.4110     1.4010 ca         1 S7R      -0.061500
     14 C29         19.1960    18.0630     1.1640 ca         1 S7R      -0.061500
     15 C27         18.7930    16.7300     1.3460 ca         1 S7R       0.083000
     16 C31         17.3140    19.4200    -4.4300 ca         1 S7R      -0.131000
     17 C04         21.5570    19.3950    -5.6400 cc         1 S7R      -0.286900
     18 C05         20.2840    19.4170    -5.1150 cd         1 S7R      -0.097000
     19 C06         19.2310    19.2690    -6.0740 cd         1 S7R      -0.065000
     20 C07         19.7380    19.1410    -7.3500 cc         1 S7R      -0.251000
     21 C09         17.7770    19.2460    -5.7560 ca         1 S7R       0.018000
     22 C30         18.2280    19.0750     1.0250 ca         1 S7R      -0.167000
     23 N01         22.8910    19.3980    -3.6350 nv         1 S7R      -1.078200
     24 N03         23.8770    19.9210    -5.5720 n2         1 S7R      -0.846100
     25 N14         15.4220    19.5750    -2.8100 ns         1 S7R      -0.136000
     26 N20         12.3120    20.3080     0.8080 n7         1 S7R      -0.862400
     27 N23         15.9200    19.7850     0.9250 nu         1 S7R      -0.972200
     28 O16         17.1370    20.5310    -1.6150 o          1 S7R      -0.591100
     29 S08         21.4930    19.2280    -7.3860 ss         1 S7R       0.313000
     30 Cl28        20.0010    15.4620     1.5190 cl         1 S7R      -0.213000
     31 H101        17.1220    18.9060    -7.8090 ha         1 S7R       0.116000
     32 H111        14.7230    18.8520    -7.2770 ha         1 S7R       0.114000
     33 H121        13.9420    19.1620    -4.9450 ha         1 S7R       0.113000
     34 H181        13.3690    19.0740    -1.3450 hc         1 S7R       0.071700
     35 H182        14.3880    17.9160    -0.5220 hc         1 S7R       0.071700
     36 H191        12.1920    18.2030     0.6180 h1         1 S7R       0.033950
     37 H192        13.4810    18.7730     1.6970 h1         1 S7R       0.033950
     38 H212        13.8120    21.2920     1.9350 h1         1 S7R       0.033950
     39 H211        12.7830    22.3650     0.9690 h1         1 S7R       0.033950
     40 H222        15.0750    22.1850    -0.0260 hc         1 S7R       0.071700
     41 H221        13.8360    21.6130    -1.1240 hc         1 S7R       0.071700
     42 H251        15.4100    17.1750     1.3360 ha         1 S7R       0.120500
     43 H261        17.1150    15.3810     1.5600 ha         1 S7R       0.130500
     44 H291        20.2540    18.3120     1.1310 ha         1 S7R       0.130500
     45 H311        18.0310    19.5560    -3.6310 ha         1 S7R       0.146000
     46 H051        20.1110    19.5380    -4.0520 ha         1 S7R       0.140000
     47 H071        19.2220    19.0130    -8.2910 h4         1 S7R       0.150000
     48 H301        18.5440    20.1050     0.8820 ha         1 S7R       0.120500
     49 H012        22.0900    18.9270    -3.2330 hn         1 S7R       0.468500
     50 H031        24.5330    20.2630    -4.8620 hn         1 S7R       0.375400
     51 H141        14.4660    19.2620    -2.7050 hn         1 S7R       0.172000
     52 H201        11.6710    20.3280     1.6120 hn         1 S7R       0.416000
     53 H231        16.2600    20.6500     1.3460 hn         1 S7R       0.470000
     54 H011        23.7860    19.1100    -3.2590 hn         1 S7R       0.468500
     55 C02         22.8350    19.5330    -4.9690 ce         1 S7R       0.695800
@<TRIPOS>BOND
     1     1     2 ar  
     2     1    21 ar  
     3     1    31 1   
     4     2     3 ar  
     5     2    32 1   
     6     3     4 ar  
     7     3    33 1   
     8     4    16 ar  
     9     4    25 1   
    10     5     6 1   
    11     5    25 1   
    12     5    28 2   
    13     6     7 1   
    14     6    10 1   
    15     6    27 1   
    16     7     8 1   
    17     7    34 1   
    18     7    35 1   
    19     8    26 1   
    20     8    36 1   
    21     8    37 1   
    22     9    10 1   
    23     9    26 1   
    24     9    38 1   
    25     9    39 1   
    26    10    40 1   
    27    10    41 1   
    28    11    12 ar  
    29    11    22 ar  
    30    11    27 1   
    31    12    13 ar  
    32    12    42 1   
    33    13    15 ar  
    34    13    43 1   
    35    14    15 ar  
    36    14    22 ar  
    37    14    44 1   
    38    15    30 1   
    39    16    21 ar  
    40    16    45 1   
    41    17    18 2   
    42    17    29 1   
    43    17    55 1   
    44    18    19 1   
    45    18    46 1   
    46    19    20 2   
    47    19    21 1   
    48    20    29 1   
    49    20    47 1   
    50    22    48 1   
    51    23    49 1   
    52    23    54 1   
    53    23    55 1   
    54    24    50 1   
    55    24    55 2   
    56    25    51 1   
    57    26    52 1   
    58    27    53 1   
@<TRIPOS>SUBSTRUCTURE
     1 S7R         1 TEMP              0 ****  ****    0 ROOT
