@<TRIPOS>MOLECULE
S7S
   26    26     1     0     0
SMALL
No Charge or Current Charge


@<TRIPOS>ATOM
      1 N1          39.2290     0.3800    75.8650 nc         1 S7S      -0.434000
      2 N3          41.1830     0.2600    76.6900 na         1 S7S       0.243600
      3 C4          39.9580     1.5070    75.6730 cc         1 S7S       0.621900
      4 C5          42.3460    -0.3020    77.3970 c3         1 S7S       0.095600
      5 C6          42.3590     0.0250    78.9050 c3         1 S7S      -0.112100
      6 N           39.3530     2.5260    74.9960 ns         1 S7S      -0.479400
      7 C           38.2810     5.7040    71.6330 c3         1 S7S      -0.093100
      8 O           40.9760     4.1430    74.9650 o          1 S7S      -0.539100
      9 C1          39.2500     4.8000    72.4200 c3         1 S7S      -0.064400
     10 C2          38.8700     4.6640    73.9150 c3         1 S7S      -0.157400
     11 C3          39.8540     3.7610    74.6680 c          1 S7S       0.609100
     12 N2          40.0090    -0.4310    76.5210 nd         1 S7S      -0.165800
     13 N4          41.1730     1.5120    76.1510 nd         1 S7S      -0.523800
     14 H1          42.3440    -1.3900    77.2600 h1         1 S7S       0.076200
     15 H2          43.2580     0.0920    76.9310 h1         1 S7S       0.076200
     16 H3          43.2430    -0.4140    79.3830 hc         1 S7S       0.056367
     17 H4          42.3840     1.1100    79.0650 hc         1 S7S       0.056367
     18 H5          41.4650    -0.3780    79.3960 hc         1 S7S       0.056367
     19 H6          38.4080     2.3510    74.6940 hn         1 S7S       0.339500
     20 H7          38.5890     5.7710    70.5830 hc         1 S7S       0.034367
     21 H8          37.2610     5.3020    71.6660 hc         1 S7S       0.034367
     22 H9          38.2680     6.7170    72.0520 hc         1 S7S       0.034367
     23 H10         39.2670     3.8050    71.9560 hc         1 S7S       0.056700
     24 H11         40.2650     5.2080    72.3360 hc         1 S7S       0.056700
     25 H12         38.8950     5.6620    74.3690 hc         1 S7S       0.061200
     26 H13         37.8540     4.2560    73.9790 hc         1 S7S       0.061200
@<TRIPOS>BOND
     1     1     3 1   
     2     1    12 2   
     3     2     4 1   
     4     2    12 1   
     5     2    13 1   
     6     3     6 1   
     7     3    13 2   
     8     4     5 1   
     9     4    14 1   
    10     4    15 1   
    11     5    16 1   
    12     5    17 1   
    13     5    18 1   
    14     6    11 1   
    15     6    19 1   
    16     7     9 1   
    17     7    20 1   
    18     7    21 1   
    19     7    22 1   
    20     8    11 2   
    21     9    10 1   
    22     9    23 1   
    23     9    24 1   
    24    10    11 1   
    25    10    25 1   
    26    10    26 1   
@<TRIPOS>SUBSTRUCTURE
     1 S7S         1 TEMP              0 ****  ****    0 ROOT
