@<TRIPOS>MOLECULE
S7S
   26    26     1     0     0
SMALL
bcc


@<TRIPOS>ATOM
      1 N1          38.9280     0.3460    76.3910 nc         1 S7S      -0.434000
      2 N3          40.9370     0.1230    76.8800 na         1 S7S       0.272900
      3 C4          39.6710     1.2940    75.7990 cc         1 S7S       0.621900
      4 C5          42.1420    -0.3990    77.5040 c3         1 S7S       0.066300
      5 C6          42.6900     0.5470    78.5540 c3         1 S7S      -0.112100
      6 N           39.0900     2.2350    74.9900 ns         1 S7S      -0.546400
      7 C           38.5170     5.9960    71.8710 c3         1 S7S      -0.093100
      8 O           40.9260     3.4230    74.4020 o          1 S7S      -0.539100
      9 C1          39.5060     5.1430    72.6530 c3         1 S7S      -0.064400
     10 C2          38.7930     4.1320    73.5370 c3         1 S7S      -0.157400
     11 C3          39.7280     3.2530    74.3330 c          1 S7S       0.676100
     12 N2          39.7610    -0.3790    77.0700 nd         1 S7S      -0.165800
     13 N4          40.9490     1.1780    76.0930 nd         1 S7S      -0.523800
     14 H1          41.8690    -1.3590    77.9360 h1         1 S7S       0.076200
     15 H2          42.8680    -0.5760    76.7120 h1         1 S7S       0.076200
     16 H3          43.5990     0.1210    78.9750 hc         1 S7S       0.056367
     17 H4          42.9400     1.5160    78.1250 hc         1 S7S       0.056367
     18 H5          41.9760     0.6960    79.3630 hc         1 S7S       0.056367
     19 H6          38.0900     2.1460    74.8810 hn         1 S7S       0.339500
     20 H7          39.0360     6.7100    71.2300 hc         1 S7S       0.034367
     21 H8          37.8790     5.3820    71.2330 hc         1 S7S       0.034367
     22 H9          37.8680     6.5630    72.5400 hc         1 S7S       0.034367
     23 H10         40.1680     4.6200    71.9590 hc         1 S7S       0.056700
     24 H11         40.1420     5.7860    73.2640 hc         1 S7S       0.056700
     25 H12         38.1330     4.6480    74.2440 hc         1 S7S       0.061200
     26 H13         38.1380     3.4950    72.9340 hc         1 S7S       0.061200
@<TRIPOS>BOND
     1     1     3 1   
     2     1    12 2   
     3     2     4 1   
     4     2    12 1   
     5     2    13 1   
     6     3     6 1   
     7     3    13 2   
     8     4     5 1   
     9     4    14 1   
    10     4    15 1   
    11     5    16 1   
    12     5    17 1   
    13     5    18 1   
    14     6    11 1   
    15     6    19 1   
    16     7     9 1   
    17     7    20 1   
    18     7    21 1   
    19     7    22 1   
    20     8    11 2   
    21     9    10 1   
    22     9    23 1   
    23     9    24 1   
    24    10    11 1   
    25    10    25 1   
    26    10    26 1   
@<TRIPOS>SUBSTRUCTURE
     1 S7S         1 TEMP              0 ****  ****    0 ROOT
