@<TRIPOS>MOLECULE
S7T
   49    50     1     0     0
SMALL
abcg2


@<TRIPOS>ATOM
      1 C10        -17.2300     2.8420     4.4240 c3         1 S7T      -0.078100
      2 C11        -18.5810     5.8990     5.1080 cc         1 S7T      -0.278600
      3 C12        -19.5400     5.9310     3.9940 c          1 S7T       0.647700
      4 C02        -17.1880     6.7590     6.6400 cc         1 S7T      -0.086300
      5 C03        -16.5280     7.8700     7.3830 c3         1 S7T      -0.040800
      6 C04        -17.1100     5.3650     6.7280 cd         1 S7T      -0.259600
      7 C05        -16.2680     4.5840     7.6360 c          1 S7T       0.609700
      8 C07        -15.5270     5.2940     8.7410 c3         1 S7T      -0.194100
      9 C08        -18.0120     4.8240     5.7540 cd         1 S7T       0.009700
     10 C09        -18.2480     3.3820     5.4280 c3         1 S7T      -0.023100
     11 C15        -20.2480     7.3200     2.0830 ca         1 S7T      -0.030000
     12 C16        -21.6210     7.0840     2.0710 ca         1 S7T      -0.111000
     13 C17        -22.3580     7.4270     0.9470 ca         1 S7T      -0.088000
     14 C18        -21.7520     8.0070    -0.1580 ca         1 S7T      -0.122000
     15 C19        -20.3830     8.2570    -0.1510 ca         1 S7T      -0.064300
     16 C20        -19.7000     8.8420    -1.3560 c3         1 S7T      -0.021100
     17 C21        -19.2820     7.7400    -2.3330 c3         1 S7T      -0.158400
     18 C22        -18.6040     8.3020    -3.5630 c          1 S7T       0.601100
     19 C26        -19.6440     7.9060     0.9720 ca         1 S7T      -0.156000
     20 N01        -18.0520     7.0450     5.6580 na         1 S7T      -0.091000
     21 N14        -19.4430     7.0380     3.1980 ns         1 S7T      -0.164000
     22 N24        -17.5210     7.5990    -3.9460 ns         1 S7T      -0.393400
     23 O06        -16.1620     3.3740     7.5220 o          1 S7T      -0.536100
     24 O13        -20.3500     5.0410     3.7980 o          1 S7T      -0.558100
     25 O23        -19.0230     9.2740    -4.1670 o          1 S7T      -0.571100
     26 O25        -16.7390     8.0420    -4.9700 oh         1 S7T      -0.422100
     27 H1         -17.4150     1.7870     4.2190 hc         1 S7T       0.034033
     28 H2         -17.2910     3.3800     3.4780 hc         1 S7T       0.034033
     29 H3         -16.2130     2.9370     4.8010 hc         1 S7T       0.034033
     30 H4         -16.7550     7.8380     8.4470 hc         1 S7T       0.054367
     31 H5         -15.4440     7.8340     7.2780 hc         1 S7T       0.054367
     32 H6         -16.8620     8.8340     7.0020 hc         1 S7T       0.054367
     33 H7         -15.0180     4.5650     9.3690 hc         1 S7T       0.056700
     34 H8         -14.7800     5.9780     8.3370 hc         1 S7T       0.056700
     35 H9         -16.2010     5.8830     9.3630 hc         1 S7T       0.056700
     36 H10        -19.2490     3.2610     5.0210 hc         1 S7T       0.068200
     37 H11        -18.2060     2.7880     6.3390 hc         1 S7T       0.068200
     38 H12        -22.1190     6.6590     2.9300 ha         1 S7T       0.136000
     39 H13        -23.4250     7.2470     0.9420 ha         1 S7T       0.118000
     40 H14        -22.3450     8.2720    -1.0250 ha         1 S7T       0.118000
     41 H15        -18.8180     9.4070    -1.0450 hc         1 S7T       0.063200
     42 H16        -20.3680     9.5410    -1.8590 hc         1 S7T       0.063200
     43 H17        -20.1690     7.1920    -2.6640 hc         1 S7T       0.064200
     44 H18        -18.6430     7.0150    -1.8240 hc         1 S7T       0.064200
     45 H19        -18.5750     8.0920     0.9850 ha         1 S7T       0.107000
     46 H20        -18.3520     7.9860     5.4470 hn         1 S7T       0.349000
     47 H21        -18.5840     7.5660     3.2440 hn         1 S7T       0.145000
     48 H22        -17.0990     6.8880    -3.3680 hn         1 S7T       0.336500
     49 H23        -17.0400     7.5760    -5.7610 ho         1 S7T       0.444000
@<TRIPOS>BOND
     1     1    10 1   
     2     1    27 1   
     3     1    28 1   
     4     1    29 1   
     5     2     3 1   
     6     2     9 2   
     7     2    20 1   
     8     3    21 1   
     9     3    24 2   
    10     4     5 1   
    11     4     6 2   
    12     4    20 1   
    13     5    30 1   
    14     5    31 1   
    15     5    32 1   
    16     6     7 1   
    17     6     9 1   
    18     7     8 1   
    19     7    23 2   
    20     8    33 1   
    21     8    34 1   
    22     8    35 1   
    23     9    10 1   
    24    10    36 1   
    25    10    37 1   
    26    11    12 ar  
    27    11    19 ar  
    28    11    21 1   
    29    12    13 ar  
    30    12    38 1   
    31    13    14 ar  
    32    13    39 1   
    33    14    15 ar  
    34    14    40 1   
    35    15    16 1   
    36    15    19 ar  
    37    16    17 1   
    38    16    41 1   
    39    16    42 1   
    40    17    18 1   
    41    17    43 1   
    42    17    44 1   
    43    18    22 1   
    44    18    25 2   
    45    19    45 1   
    46    20    46 1   
    47    21    47 1   
    48    22    26 1   
    49    22    48 1   
    50    26    49 1   
@<TRIPOS>SUBSTRUCTURE
     1 S7T         1 TEMP              0 ****  ****    0 ROOT
