@<TRIPOS>MOLECULE
S7T
   49    50     1     0     0
SMALL
No Charge or Current Charge


@<TRIPOS>ATOM
      1 C10        -18.6540     2.4770     6.1400 c3         1 S7T      -0.078100
      2 C11        -18.4120     5.6960     4.9080 cc         1 S7T      -0.278600
      3 C12        -19.5080     5.4780     3.9100 c          1 S7T       0.647700
      4 C02        -16.5160     6.5130     5.9320 cc         1 S7T      -0.086300
      5 C03        -15.3100     7.4140     6.0520 c3         1 S7T      -0.040800
      6 C04        -17.0130     5.4770     6.7070 cd         1 S7T      -0.259600
      7 C05        -16.3900     4.9550     7.9840 c          1 S7T       0.609700
      8 C07        -15.1360     5.5950     8.5850 c3         1 S7T      -0.194100
      9 C08        -18.2100     4.9860     6.0790 cd         1 S7T       0.009700
     10 C09        -19.0950     3.8740     6.6200 c3         1 S7T      -0.023100
     11 C15        -20.2600     6.5610     1.6970 ca         1 S7T      -0.030000
     12 C16        -21.4580     5.8510     1.4590 ca         1 S7T      -0.111000
     13 C17        -22.2060     6.0940     0.2940 ca         1 S7T      -0.088000
     14 C18        -21.7700     7.0460    -0.6400 ca         1 S7T      -0.122000
     15 C19        -20.5840     7.7660    -0.4130 ca         1 S7T      -0.064300
     16 C20        -20.1060     8.7970    -1.4260 c3         1 S7T      -0.021100
     17 C21        -19.1910     8.1700    -2.5020 c3         1 S7T      -0.158400
     18 C22        -18.7130     9.2170    -3.5140 c          1 S7T       0.601100
     19 C26        -19.8370     7.5170     0.7540 ca         1 S7T      -0.156000
     20 N01        -17.3790     6.6360     4.8530 na         1 S7T      -0.091000
     21 N14        -19.4460     6.3760     2.8500 ns         1 S7T      -0.164000
     22 N24        -17.3720     9.5690    -3.4100 ns         1 S7T      -0.393400
     23 O06        -16.8590     3.9990     8.5850 o          1 S7T      -0.536100
     24 O13        -20.3590     4.6030     3.9970 o          1 S7T      -0.558100
     25 O23        -19.4500     9.6780    -4.3760 o          1 S7T      -0.571100
     26 O25        -16.8430    10.7110    -4.1270 oh         1 S7T      -0.422100
     27 H1         -19.3120     1.7040     6.5540 hc         1 S7T       0.034033
     28 H2         -18.6950     2.4140     5.0460 hc         1 S7T       0.034033
     29 H3         -17.6270     2.2630     6.4580 hc         1 S7T       0.034033
     30 H4         -15.3460     8.0180     6.9650 hc         1 S7T       0.054367
     31 H5         -14.3760     6.8410     6.0340 hc         1 S7T       0.054367
     32 H6         -15.2610     8.1180     5.2130 hc         1 S7T       0.054367
     33 H7         -14.8340     5.1140     9.5220 hc         1 S7T       0.056700
     34 H8         -14.3230     5.5550     7.8550 hc         1 S7T       0.056700
     35 H9         -15.3100     6.6640     8.7360 hc         1 S7T       0.056700
     36 H10        -20.1430     4.0340     6.3470 hc         1 S7T       0.068200
     37 H11        -19.1220     3.8900     7.7130 hc         1 S7T       0.068200
     38 H12        -21.8310     5.1120     2.1610 ha         1 S7T       0.136000
     39 H13        -23.1270     5.5420     0.1170 ha         1 S7T       0.118000
     40 H14        -22.3560     7.2250    -1.5390 ha         1 S7T       0.118000
     41 H15        -19.5650     9.6040    -0.9160 hc         1 S7T       0.063200
     42 H16        -20.9670     9.2720    -1.9140 hc         1 S7T       0.063200
     43 H17        -19.7630     7.4010    -3.0360 hc         1 S7T       0.064200
     44 H18        -18.3320     7.7100    -2.0000 hc         1 S7T       0.064200
     45 H19        -18.9170     8.0710     0.9270 ha         1 S7T       0.107000
     46 H20        -17.2500     7.3200     4.1140 hn         1 S7T       0.349000
     47 H21        -18.6790     7.0300     2.9060 hn         1 S7T       0.145000
     48 H22        -16.8390     9.2610    -2.5980 hn         1 S7T       0.336500
     49 H23        -16.0330    10.3560    -4.5650 ho         1 S7T       0.444000
@<TRIPOS>BOND
     1     1    10 1   
     2     1    27 1   
     3     1    28 1   
     4     1    29 1   
     5     2     3 1   
     6     2     9 2   
     7     2    20 1   
     8     3    21 1   
     9     3    24 2   
    10     4     5 1   
    11     4     6 2   
    12     4    20 1   
    13     5    30 1   
    14     5    31 1   
    15     5    32 1   
    16     6     7 1   
    17     6     9 1   
    18     7     8 1   
    19     7    23 2   
    20     8    33 1   
    21     8    34 1   
    22     8    35 1   
    23     9    10 1   
    24    10    36 1   
    25    10    37 1   
    26    11    12 ar  
    27    11    19 ar  
    28    11    21 1   
    29    12    13 ar  
    30    12    38 1   
    31    13    14 ar  
    32    13    39 1   
    33    14    15 ar  
    34    14    40 1   
    35    15    16 1   
    36    15    19 ar  
    37    16    17 1   
    38    16    41 1   
    39    16    42 1   
    40    17    18 1   
    41    17    43 1   
    42    17    44 1   
    43    18    22 1   
    44    18    25 2   
    45    19    45 1   
    46    20    46 1   
    47    21    47 1   
    48    22    26 1   
    49    22    48 1   
    50    26    49 1   
@<TRIPOS>SUBSTRUCTURE
     1 S7T         1 TEMP              0 ****  ****    0 ROOT
