@<TRIPOS>MOLECULE
S7V
   32    33     1     0     0
SMALL
No Charge or Current Charge


@<TRIPOS>ATOM
      1 C4          49.1110     6.5690    63.0440 ca         1 S7V      -0.089300
      2 C5          47.7720     6.3130    63.4040 ca         1 S7V      -0.099500
      3 C6          46.7260     6.6390    62.5220 ca         1 S7V      -0.115000
      4 C7          47.0120     7.2230    61.2770 ca         1 S7V      -0.110000
      5 C8          48.3440     7.4810    60.9120 ca         1 S7V      -0.115000
      6 C10         50.3260     3.8100    63.3320 c6         1 S7V       0.128800
      7 N           51.0860     5.0860    63.5280 n3         1 S7V      -0.721600
      8 C1          53.1540     3.6200    63.9380 c6         1 S7V       0.164300
      9 C11         51.2320     2.6190    62.8720 c6         1 S7V       0.165600
     10 C2          52.3060     4.8700    64.3720 c6         1 S7V       0.145800
     11 C3          50.2510     6.2170    63.9980 c3         1 S7V       0.220100
     12 C9          49.3900     7.1550    61.7930 ca         1 S7V      -0.099500
     13 O1          52.6160     3.0220    62.7300 os         1 S7V      -0.445000
     14 H1          47.5420     5.8590    64.3650 ha         1 S7V       0.119500
     15 H2          45.6950     6.4380    62.8050 ha         1 S7V       0.111500
     16 H3          46.2020     7.4750    60.5950 ha         1 S7V       0.111000
     17 H4          48.5670     7.9320    59.9480 ha         1 S7V       0.111500
     18 H5          49.5330     3.9490    62.5830 h1         1 S7V       0.041700
     19 H6          49.8260     3.5220    64.2680 h1         1 S7V       0.041700
     20 H10         56.2630     4.6490    64.5720 ho         1 S7V       0.508000
     21 H11         53.1150     2.8670    64.7390 h1         1 S7V       0.042700
     22 H12         50.8750     2.2340    61.9070 h1         1 S7V       0.046200
     23 H13         51.1680     1.8010    63.6040 h1         1 S7V       0.046200
     24 H14         52.9390     5.7690    64.3410 h1         1 S7V       0.045200
     25 H15         52.0170     4.7330    65.4250 h1         1 S7V       0.045200
     26 H16         50.8760     7.1120    64.1180 h1         1 S7V       0.038700
     27 H17         49.8340     5.9880    64.9890 h1         1 S7V       0.038700
     28 H18         50.4200     7.3520    61.5050 ha         1 S7V       0.119500
     29 C           54.6520     3.9640    63.6690 c3         1 S7V       0.160600
     30 H8          55.1530     3.0510    63.3200 h1         1 S7V       0.034700
     31 O           55.3260     4.4810    64.8330 oh         1 S7V      -0.726000
     32 H9          54.6940     4.6960    62.8510 h1         1 S7V       0.034700
@<TRIPOS>BOND
     1     1     2 ar  
     2     1    11 1   
     3     1    12 ar  
     4     2     3 ar  
     5     2    14 1   
     6     3     4 ar  
     7     3    15 1   
     8     4     5 ar  
     9     4    16 1   
    10     5    12 ar  
    11     5    17 1   
    12     6     7 1   
    13     6     9 1   
    14     6    18 1   
    15     6    19 1   
    16     7    10 1   
    17     7    11 1   
    18     8    10 1   
    19     8    13 1   
    20     8    21 1   
    21     8    29 1   
    22     9    13 1   
    23     9    22 1   
    24     9    23 1   
    25    10    24 1   
    26    10    25 1   
    27    11    26 1   
    28    11    27 1   
    29    12    28 1   
    30    20    31 1   
    31    29    30 1   
    32    29    31 1   
    33    29    32 1   
@<TRIPOS>SUBSTRUCTURE
     1 S7V         1 TEMP              0 ****  ****    0 ROOT
