@<TRIPOS>MOLECULE
S7V
   32    33     1     0     0
SMALL
abcg2


@<TRIPOS>ATOM
      1 C4          49.0700     6.4300    63.0930 ca         1 S7V      -0.089300
      2 C5          47.7910     6.6730    63.5830 ca         1 S7V      -0.099500
      3 C6          46.7580     7.0370    62.7270 ca         1 S7V      -0.115000
      4 C7          46.9920     7.1540    61.3640 ca         1 S7V      -0.110000
      5 C8          48.2650     6.9070    60.8650 ca         1 S7V      -0.115000
      6 C10         50.4980     3.7760    63.3570 c6         1 S7V       0.128800
      7 N           51.0900     5.0880    63.4880 n3         1 S7V      -0.721600
      8 C1          53.0990     3.7300    63.8400 c6         1 S7V       0.164300
      9 C11         51.3930     2.9430    62.4400 c6         1 S7V       0.165600
     10 C2          52.3330     5.0050    64.2360 c6         1 S7V       0.145800
     11 C3          50.1990     6.0850    64.0310 c3         1 S7V       0.220100
     12 C9          49.2960     6.5490    61.7220 ca         1 S7V      -0.099500
     13 O1          52.7480     3.3340    62.5360 os         1 S7V      -0.445000
     14 H1          47.5980     6.5740    64.6450 ha         1 S7V       0.119500
     15 H2          45.7680     7.2220    63.1260 ha         1 S7V       0.111500
     16 H3          46.1880     7.4320    60.6950 ha         1 S7V       0.111000
     17 H4          48.4550     6.9920    59.8020 ha         1 S7V       0.111500
     18 H5          49.5060     3.8530    62.9110 h1         1 S7V       0.041700
     19 H6          50.3610     3.2880    64.3370 h1         1 S7V       0.041700
     20 H10         55.9020     4.5560    65.1510 ho         1 S7V       0.508000
     21 H11         52.8550     2.9280    64.5550 h1         1 S7V       0.042700
     22 H12         51.1050     3.0930    61.3970 h1         1 S7V       0.046200
     23 H13         51.2740     1.8770    62.6710 h1         1 S7V       0.046200
     24 H14         52.9300     5.9000    64.0250 h1         1 S7V       0.045200
     25 H15         52.1580     4.9850    65.3230 h1         1 S7V       0.045200
     26 H16         50.7880     6.9890    64.2160 h1         1 S7V       0.038700
     27 H17         49.7860     5.7900    65.0110 h1         1 S7V       0.038700
     28 H18         50.2840     6.3460    61.3290 ha         1 S7V       0.119500
     29 C           54.6020     3.9340    63.8560 c3         1 S7V       0.160600
     30 H8          55.0980     2.9990    63.5610 h1         1 S7V       0.034700
     31 O           54.9680     4.3300    65.1570 oh         1 S7V      -0.726000
     32 H9          54.8650     4.6940    63.1080 h1         1 S7V       0.034700
@<TRIPOS>BOND
     1     1     2 ar  
     2     1    11 1   
     3     1    12 ar  
     4     2     3 ar  
     5     2    14 1   
     6     3     4 ar  
     7     3    15 1   
     8     4     5 ar  
     9     4    16 1   
    10     5    12 ar  
    11     5    17 1   
    12     6     7 1   
    13     6     9 1   
    14     6    18 1   
    15     6    19 1   
    16     7    10 1   
    17     7    11 1   
    18     8    10 1   
    19     8    13 1   
    20     8    21 1   
    21     8    29 1   
    22     9    13 1   
    23     9    22 1   
    24     9    23 1   
    25    10    24 1   
    26    10    25 1   
    27    11    26 1   
    28    11    27 1   
    29    12    28 1   
    30    20    31 1   
    31    29    30 1   
    32    29    31 1   
    33    29    32 1   
@<TRIPOS>SUBSTRUCTURE
     1 S7V         1 TEMP              0 ****  ****    0 ROOT
