@<TRIPOS>MOLECULE
S7W
   23    24     1     0     0
SMALL
No Charge or Current Charge


@<TRIPOS>ATOM
      1 C01         15.3840   -20.0940     0.2860 c5         1 S7W      -0.115400
      2 C02         16.2760   -19.6600     1.4850 c5         1 S7W      -0.126400
      3 C03         17.6440   -19.5860     0.7700 c5         1 S7W       0.332700
      4 C05         16.1040   -19.4650    -0.9520 c5         1 S7W       0.150600
      5 C07         18.3520   -17.4440     1.8640 cc         1 S7W      -0.043400
      6 C08         19.2070   -16.7440     2.6840 cd         1 S7W      -0.038700
      7 C09         20.3830   -17.4100     3.3020 c          1 S7W       0.576200
      8 C12         19.6880   -19.4780     2.1760 c          1 S7W       0.627000
      9 F14         19.0040   -15.4370     2.9440 f          1 S7W      -0.138500
     10 N06         18.5930   -18.8020     1.6010 n          1 S7W      -0.313000
     11 N11         20.4980   -18.7300     2.9740 ns         1 S7W      -0.468500
     12 O04         17.3370   -18.9020    -0.4500 os         1 S7W      -0.459000
     13 O10         21.1890   -16.8620     4.0380 o          1 S7W      -0.496000
     14 O13         19.9210   -20.6610     1.9930 o          1 S7W      -0.549000
     15 H012        14.3500   -19.7430     0.3870 hc         1 S7W       0.065700
     16 H011        15.3430   -21.1860     0.1930 hc         1 S7W       0.065700
     17 H022        15.9520   -18.6950     1.8880 hc         1 S7W       0.069200
     18 H021        16.2680   -20.3850     2.3060 hc         1 S7W       0.069200
     19 H031        18.0540   -20.5840     0.5630 h2         1 S7W       0.109700
     20 H052        15.5110   -18.6690    -1.4210 h1         1 S7W       0.055200
     21 H051        16.3340   -20.2240    -1.7120 h1         1 S7W       0.055200
     22 H071        17.4830   -17.0340     1.3600 h4         1 S7W       0.224000
     23 H111        21.2820   -19.2170     3.3790 hn         1 S7W       0.347500
@<TRIPOS>BOND
     1     1     2 1   
     2     1     4 1   
     3     1    15 1   
     4     1    16 1   
     5     2     3 1   
     6     2    17 1   
     7     2    18 1   
     8     3    10 1   
     9     3    12 1   
    10     3    19 1   
    11     4    12 1   
    12     4    20 1   
    13     4    21 1   
    14     5     6 2   
    15     5    10 1   
    16     5    22 1   
    17     6     7 1   
    18     6     9 1   
    19     7    11 1   
    20     7    13 2   
    21     8    10 1   
    22     8    11 1   
    23     8    14 2   
    24    11    23 1   
@<TRIPOS>SUBSTRUCTURE
     1 S7W         1 TEMP              0 ****  ****    0 ROOT
