@<TRIPOS>MOLECULE
S7W
   23    24     1     0     0
SMALL
abcg2


@<TRIPOS>ATOM
      1 C01         15.4220   -20.0370     0.2040 c5         1 S7W      -0.115400
      2 C02         16.2610   -19.9090     1.4670 c5         1 S7W      -0.126400
      3 C03         17.6750   -19.8250     0.8990 c5         1 S7W       0.332700
      4 C05         16.1920   -19.1460    -0.7580 c5         1 S7W       0.150600
      5 C07         18.3280   -17.6330     1.7400 cc         1 S7W      -0.043400
      6 C08         19.1190   -16.7960     2.4150 cd         1 S7W      -0.038700
      7 C09         20.2890   -17.2700     3.1210 c          1 S7W       0.576200
      8 C12         19.6600   -19.5350     2.3220 c          1 S7W       0.627000
      9 F14         18.8730   -15.4850     2.4640 f          1 S7W      -0.138500
     10 N06         18.5750   -18.9790     1.6870 n          1 S7W      -0.313000
     11 N11         20.4480   -18.6350     3.0020 ns         1 S7W      -0.468500
     12 O04         17.5660   -19.2920    -0.3940 os         1 S7W      -0.459000
     13 O10         21.0580   -16.5770     3.7530 o          1 S7W      -0.496000
     14 O13         19.9190   -20.7200     2.3040 o          1 S7W      -0.549000
     15 H012        14.3920   -19.7120     0.3400 hc         1 S7W       0.065700
     16 H011        15.4080   -21.0690    -0.1510 hc         1 S7W       0.065700
     17 H022        15.9990   -18.9980     2.0120 hc         1 S7W       0.069200
     18 H021        16.1570   -20.7460     2.1560 hc         1 S7W       0.069200
     19 H031        18.1430   -20.8080     0.8600 h2         1 S7W       0.109700
     20 H052        15.8860   -18.0990    -0.6590 h1         1 S7W       0.055200
     21 H051        16.0770   -19.4340    -1.8040 h1         1 S7W       0.055200
     22 H071        17.4600   -17.2680     1.2080 h4         1 S7W       0.224000
     23 H111        21.2510   -19.0360     3.4710 hn         1 S7W       0.347500
@<TRIPOS>BOND
     1     1     2 1   
     2     1     4 1   
     3     1    15 1   
     4     1    16 1   
     5     2     3 1   
     6     2    17 1   
     7     2    18 1   
     8     3    10 1   
     9     3    12 1   
    10     3    19 1   
    11     4    12 1   
    12     4    20 1   
    13     4    21 1   
    14     5     6 2   
    15     5    10 1   
    16     5    22 1   
    17     6     7 1   
    18     6     9 1   
    19     7    11 1   
    20     7    13 2   
    21     8    10 1   
    22     8    11 1   
    23     8    14 2   
    24    11    23 1   
@<TRIPOS>SUBSTRUCTURE
     1 S7W         1 TEMP              0 ****  ****    0 ROOT
