@<TRIPOS>MOLECULE
S7X
   53    56     1     0     0
SMALL
No Charge or Current Charge


@<TRIPOS>ATOM
      1 C2         -18.4440   -25.4050    21.2840 ca         1 S7X       0.202000
      2 C3         -18.5500   -26.0690    22.5260 ca         1 S7X      -0.153300
      3 C10        -17.8100   -18.8120    20.3610 c          1 S7X       0.555800
      4 C13        -17.3620   -21.9200    24.2540 ca         1 S7X      -0.121000
      5 C15        -19.6180   -20.9720    24.1000 ca         1 S7X      -0.153000
      6 C4         -17.6870   -27.2890    22.8390 c3         1 S7X       0.159300
      7 C5         -15.7460   -26.0290    23.8050 c          1 S7X       0.592100
      8 C6         -14.2740   -25.6760    23.4100 c5         1 S7X       0.033700
      9 C1         -19.1940   -24.2380    21.0320 ca         1 S7X       0.085000
     10 Cl1        -19.0440   -23.3780    19.4990 cl         1 S7X      -0.176000
     11 F1         -17.6160   -25.8900    20.3270 f          1 S7X      -0.172000
     12 N1         -16.2700   -26.9330    22.9040 ns         1 S7X      -0.478900
     13 O1         -16.3780   -25.5880    24.7570 o          1 S7X      -0.596100
     14 N2         -14.0130   -24.2110    23.3660 n          1 S7X      -0.410800
     15 C7         -14.7670   -23.3420    22.5500 c          1 S7X       0.580100
     16 O2         -15.5500   -23.8040    21.7290 o          1 S7X      -0.582100
     17 C8         -14.6120   -21.8280    22.7550 c3         1 S7X       0.021600
     18 N3         -15.8350   -21.0820    22.4190 na         1 S7X       0.087600
     19 N4         -15.9370   -20.2120    21.3330 nc         1 S7X      -0.502100
     20 C9         -17.2190   -19.7790    21.3650 cd         1 S7X       0.313900
     21 O3         -18.9640   -18.4020    20.3640 o          1 S7X      -0.612100
     22 N5         -16.9650   -18.3810    19.3880 nt         1 S7X      -0.595000
     23 C11        -17.9320   -20.3720    22.4880 ca         1 S7X      -0.178900
     24 C12        -17.0290   -21.1740    23.1120 ca         1 S7X      -0.035200
     25 C14        -18.6780   -21.8090    24.7490 ca         1 S7X      -0.075000
     26 C16        -19.2520   -20.2390    22.9500 ca         1 S7X      -0.028000
     27 C17        -12.8280   -23.8000    24.1470 c5         1 S7X       0.107000
     28 C18        -12.1140   -25.1600    24.3550 c5         1 S7X      -0.091400
     29 C19        -13.3100   -26.1260    24.5490 c5         1 S7X      -0.083400
     30 C20        -19.4340   -25.5640    23.5010 ca         1 S7X      -0.059000
     31 C21        -20.1960   -24.4120    23.2410 ca         1 S7X      -0.123000
     32 C22        -20.0710   -23.7440    22.0110 ca         1 S7X      -0.066000
     33 H1         -16.6370   -22.5630    24.7460 ha         1 S7X       0.124000
     34 H2         -20.6310   -20.8950    24.4880 ha         1 S7X       0.114000
     35 H3         -17.8280   -28.0490    22.0580 h1         1 S7X       0.065200
     36 H4         -17.9870   -27.7330    23.7980 h1         1 S7X       0.065200
     37 H5         -14.0100   -26.1400    22.4510 h1         1 S7X       0.066700
     38 H6         -15.6670   -27.2330    22.1480 hn         1 S7X       0.318500
     39 H7         -13.7790   -21.4810    22.1350 h1         1 S7X       0.082700
     40 H8         -14.3690   -21.6340    23.8050 h1         1 S7X       0.082700
     41 H9         -17.2970   -17.7360    18.6880 hn         1 S7X       0.324500
     42 H10        -16.0100   -18.7140    19.3770 hn         1 S7X       0.324500
     43 H11        -18.9730   -22.3730    25.6310 ha         1 S7X       0.113000
     44 H12        -19.9720   -19.5960    22.4490 ha         1 S7X       0.142000
     45 H13        -12.1930   -23.0840    23.6070 h1         1 S7X       0.050700
     46 H14        -13.1310   -23.3530    25.1030 h1         1 S7X       0.050700
     47 H15        -11.4320   -25.1480    25.2130 hc         1 S7X       0.058200
     48 H16        -11.5250   -25.4340    23.4720 hc         1 S7X       0.058200
     49 H17        -13.7580   -25.9900    25.5410 hc         1 S7X       0.067700
     50 H18        -13.0250   -27.1810    24.4630 hc         1 S7X       0.067700
     51 H19        -19.5230   -26.0570    24.4670 ha         1 S7X       0.122000
     52 H20        -20.8730   -24.0270    24.0010 ha         1 S7X       0.120000
     53 H21        -20.6510   -22.8450    21.8180 ha         1 S7X       0.135000
@<TRIPOS>BOND
     1     1     2 ar  
     2     1     9 ar  
     3     1    11 1   
     4     2     6 1   
     5     2    30 ar  
     6     3    20 1   
     7     3    21 2   
     8     3    22 1   
     9     4    24 ar  
    10     4    25 ar  
    11     4    33 1   
    12     5    25 ar  
    13     5    26 ar  
    14     5    34 1   
    15     6    12 1   
    16     6    35 1   
    17     6    36 1   
    18     7     8 1   
    19     7    12 1   
    20     7    13 2   
    21     8    14 1   
    22     8    29 1   
    23     8    37 1   
    24     9    10 1   
    25     9    32 ar  
    26    12    38 1   
    27    14    15 1   
    28    14    27 1   
    29    15    16 2   
    30    15    17 1   
    31    17    18 1   
    32    17    39 1   
    33    17    40 1   
    34    18    19 1   
    35    18    24 1   
    36    19    20 2   
    37    20    23 1   
    38    22    41 1   
    39    22    42 1   
    40    23    24 ar  
    41    23    26 ar  
    42    25    43 1   
    43    26    44 1   
    44    27    28 1   
    45    27    45 1   
    46    27    46 1   
    47    28    29 1   
    48    28    47 1   
    49    28    48 1   
    50    29    49 1   
    51    29    50 1   
    52    30    31 ar  
    53    30    51 1   
    54    31    32 ar  
    55    31    52 1   
    56    32    53 1   
@<TRIPOS>SUBSTRUCTURE
     1 S7X         1 TEMP              0 ****  ****    0 ROOT
