@<TRIPOS>MOLECULE
S7X
   53    56     1     0     0
SMALL
abcg2


@<TRIPOS>ATOM
      1 C2         -18.4060   -25.1600    21.2870 ca         1 S7X       0.202000
      2 C3         -18.4820   -25.9370    22.4350 ca         1 S7X      -0.153300
      3 C10        -17.7030   -19.4360    20.1510 c          1 S7X       0.555800
      4 C13        -17.5390   -21.5550    24.6700 ca         1 S7X      -0.121000
      5 C15        -19.7390   -20.6030    24.2310 ca         1 S7X      -0.153000
      6 C4         -17.6120   -27.1650    22.5830 c3         1 S7X       0.159300
      7 C5         -15.5900   -26.1150    23.4760 c          1 S7X       0.592100
      8 C6         -14.1690   -25.6400    23.1560 c5         1 S7X       0.033700
      9 C1         -19.1340   -23.9880    21.1420 ca         1 S7X       0.085000
     10 CL1        -18.9510   -23.0280    19.7030 cl         1 S7X      -0.176000
     11 F1         -17.5900   -25.5550    20.2880 f          1 S7X      -0.172000
     12 N1         -16.1890   -26.8500    22.5200 ns         1 S7X      -0.478900
     13 O1         -16.1160   -25.8540    24.5540 o          1 S7X      -0.596100
     14 N2         -14.0630   -24.1930    23.3850 n          1 S7X      -0.410800
     15 C7         -14.9150   -23.3500    22.7870 c          1 S7X       0.580100
     16 O2         -15.7730   -23.7300    21.9930 o          1 S7X      -0.582100
     17 C8         -14.7840   -21.8680    23.1530 c3         1 S7X       0.021600
     18 N3         -15.9570   -21.1380    22.7510 na         1 S7X       0.087600
     19 N4         -16.0370   -20.5800    21.5330 nc         1 S7X      -0.502100
     20 C9         -17.2710   -20.1140    21.3920 cd         1 S7X       0.313900
     21 O3         -18.8490   -18.9920    20.0360 o          1 S7X      -0.612100
     22 N5         -16.7790   -19.3490    19.1760 nt         1 S7X      -0.595000
     23 C11        -18.0480   -20.3880    22.5590 ca         1 S7X      -0.178900
     24 C12        -17.1560   -21.0760    23.4130 ca         1 S7X      -0.035200
     25 C14        -18.8400   -21.3060    25.0600 ca         1 S7X      -0.075000
     26 C16        -19.3620   -20.1440    22.9850 ca         1 S7X      -0.028000
     27 C17        -12.9650   -23.8420    24.2970 c5         1 S7X       0.107000
     28 C18        -12.0990   -25.1000    24.2770 c5         1 S7X      -0.091400
     29 C19        -13.1210   -26.2290    24.1120 c5         1 S7X      -0.083400
     30 C20        -19.3440   -25.5150    23.4430 ca         1 S7X      -0.059000
     31 C21        -20.0950   -24.3530    23.3060 ca         1 S7X      -0.123000
     32 C22        -19.9890   -23.5820    22.1570 ca         1 S7X      -0.066000
     33 H1         -16.8530   -22.1020    25.3030 ha         1 S7X       0.124000
     34 H2         -20.7500   -20.4340    24.5800 ha         1 S7X       0.114000
     35 H3         -17.8170   -27.8820    21.7890 h1         1 S7X       0.065200
     36 H4         -17.8320   -27.6430    23.5350 h1         1 S7X       0.065200
     37 H5         -13.9240   -25.8630    22.1150 h1         1 S7X       0.066700
     38 H6         -15.7520   -26.8810    21.6130 hn         1 S7X       0.318500
     39 H7         -13.9190   -21.4390    22.6470 h1         1 S7X       0.082700
     40 H8         -14.6400   -21.7450    24.2260 h1         1 S7X       0.082700
     41 H9         -17.0150   -18.9020    18.3050 hn         1 S7X       0.324500
     42 H10        -15.8560   -19.7320    19.3020 hn         1 S7X       0.324500
     43 H11        -19.1810   -21.6640    26.0220 ha         1 S7X       0.113000
     44 H12        -20.0560   -19.6180    22.3460 ha         1 S7X       0.142000
     45 H13        -12.4340   -22.9600    23.9440 h1         1 S7X       0.050700
     46 H14        -13.3540   -23.6420    25.3000 h1         1 S7X       0.050700
     47 H15        -11.5020   -25.2010    25.1830 hc         1 S7X       0.058200
     48 H16        -11.4230   -25.0710    23.4210 hc         1 S7X       0.058200
     49 H17        -13.5930   -26.4500    25.0700 hc         1 S7X       0.067700
     50 H18        -12.6910   -27.1460    23.7160 hc         1 S7X       0.067700
     51 H19        -19.4100   -26.1020    24.3510 ha         1 S7X       0.122000
     52 H20        -20.7510   -24.0320    24.1030 ha         1 S7X       0.120000
     53 H21        -20.5460   -22.6630    22.0490 ha         1 S7X       0.135000
@<TRIPOS>BOND
     1     1     2 ar  
     2     1     9 ar  
     3     1    11 1   
     4     2     6 1   
     5     2    30 ar  
     6     3    20 1   
     7     3    21 2   
     8     3    22 1   
     9     4    24 ar  
    10     4    25 ar  
    11     4    33 1   
    12     5    25 ar  
    13     5    26 ar  
    14     5    34 1   
    15     6    12 1   
    16     6    35 1   
    17     6    36 1   
    18     7     8 1   
    19     7    12 1   
    20     7    13 2   
    21     8    14 1   
    22     8    29 1   
    23     8    37 1   
    24     9    10 1   
    25     9    32 ar  
    26    12    38 1   
    27    14    15 1   
    28    14    27 1   
    29    15    16 2   
    30    15    17 1   
    31    17    18 1   
    32    17    39 1   
    33    17    40 1   
    34    18    19 1   
    35    18    24 1   
    36    19    20 2   
    37    20    23 1   
    38    22    41 1   
    39    22    42 1   
    40    23    24 ar  
    41    23    26 ar  
    42    25    43 1   
    43    26    44 1   
    44    27    28 1   
    45    27    45 1   
    46    27    46 1   
    47    28    29 1   
    48    28    47 1   
    49    28    48 1   
    50    29    49 1   
    51    29    50 1   
    52    30    31 ar  
    53    30    51 1   
    54    31    32 ar  
    55    31    52 1   
    56    32    53 1   
@<TRIPOS>SUBSTRUCTURE
     1 S7X         1 TEMP              0 ****  ****    0 ROOT
