@<TRIPOS>MOLECULE
S7Y
   40    43     1     0     0
SMALL
No Charge or Current Charge


@<TRIPOS>ATOM
      1 N          102.6440   118.4280    92.2610 n          1 S7Y      -0.415800
      2 C          100.0600   119.1760    93.0400 cc         1 S7Y      -0.014300
      3 O          103.5000   120.2560    93.4020 o          1 S7Y      -0.566000
      4 C1         100.1920   117.8340    92.3860 c6         1 S7Y      -0.037200
      5 C10         98.5090   122.0200    94.7550 ca         1 S7Y      -0.125000
      6 C11        104.0230   116.4310    92.6210 cc         1 S7Y      -0.237300
      7 C12        100.5600   123.3030    95.1730 ca         1 S7Y      -0.134000
      8 C13         99.1550   123.1600    95.2790 ca         1 S7Y      -0.096000
      9 C14        103.8040   116.0230    93.9130 cd         1 S7Y       0.279300
     10 C15        103.4430   116.8710    95.1010 c3         1 S7Y      -0.114400
     11 C16        104.2570   114.2230    92.8070 cc         1 S7Y       0.393400
     12 C2         101.1260   120.0030    93.3390 cd         1 S7Y      -0.222400
     13 C3         101.4790   117.8480    91.5360 c6         1 S7Y       0.114000
     14 C4         100.6630   121.1850    94.0340 ca         1 S7Y      -0.040800
     15 C5          99.3010   121.0420    94.1330 ca         1 S7Y      -0.060200
     16 C6         102.5280   119.6180    93.0230 c          1 S7Y       0.615200
     17 C7         103.9660   117.8150    92.0240 c3         1 S7Y       0.179300
     18 C8          97.5280   119.3760    93.5280 c3         1 S7Y       0.059900
     19 C9         101.3350   122.3060    94.5420 ca         1 S7Y      -0.053000
     20 N1          98.9250   119.8380    93.5430 na         1 S7Y      -0.070700
     21 N2         104.3100   115.2740    91.9240 na         1 S7Y      -0.302500
     22 N3         103.9500   114.6550    94.0210 nd         1 S7Y      -0.679000
     23 H3          99.3260   117.5990    91.7510 hc         1 S7Y       0.066700
     24 H4         100.2600   117.0440    93.1460 hc         1 S7Y       0.066700
     25 H5          97.4300   121.9080    94.8350 ha         1 S7Y       0.113000
     26 H6         101.0460   124.1870    95.5800 ha         1 S7Y       0.113000
     27 H7          98.5690   123.9360    95.7670 ha         1 S7Y       0.111000
     28 H8         103.5740   116.3240    96.0410 hc         1 S7Y       0.048033
     29 H9         104.0710   117.7680    95.1450 hc         1 S7Y       0.048033
     30 H10        102.3970   117.1950    95.0420 hc         1 S7Y       0.048033
     31 H11        104.4450   113.1980    92.5110 h5         1 S7Y       0.054100
     32 H12        101.7070   116.8260    91.2030 h1         1 S7Y       0.044700
     33 H13        101.3030   118.4530    90.6350 h1         1 S7Y       0.044700
     34 H15        104.7690   118.4230    92.4600 h1         1 S7Y       0.064700
     35 H16        104.1440   117.7610    90.9420 h1         1 S7Y       0.064700
     36 H17         96.9230   120.0620    92.9230 h1         1 S7Y       0.051700
     37 H18         97.4690   118.3690    93.1000 h1         1 S7Y       0.051700
     38 H19         97.1380   119.3530    94.5530 h1         1 S7Y       0.051700
     39 H20        102.4140   122.4090    94.4550 ha         1 S7Y       0.137000
     40 H21        104.5250   115.1890    90.9370 hn         1 S7Y       0.348000
@<TRIPOS>BOND
     1     1    13 1   
     2     1    16 1   
     3     1    17 1   
     4     2     4 1   
     5     2    12 2   
     6     2    20 1   
     7     3    16 2   
     8     4    13 1   
     9     4    23 1   
    10     4    24 1   
    11     5     8 ar  
    12     5    15 ar  
    13     5    25 1   
    14     6     9 2   
    15     6    17 1   
    16     6    21 1   
    17     7     8 ar  
    18     7    19 ar  
    19     7    26 1   
    20     8    27 1   
    21     9    10 1   
    22     9    22 1   
    23    10    28 1   
    24    10    29 1   
    25    10    30 1   
    26    11    21 1   
    27    11    22 2   
    28    11    31 1   
    29    12    14 1   
    30    12    16 1   
    31    13    32 1   
    32    13    33 1   
    33    14    15 ar  
    34    14    19 ar  
    35    15    20 1   
    36    17    34 1   
    37    17    35 1   
    38    18    20 1   
    39    18    36 1   
    40    18    37 1   
    41    18    38 1   
    42    19    39 1   
    43    21    40 1   
@<TRIPOS>SUBSTRUCTURE
     1 S7Y         1 TEMP              0 ****  ****    0 ROOT
