@<TRIPOS>MOLECULE
S7Y
   40    43     1     0     0
SMALL
bcc


@<TRIPOS>ATOM
      1 N          102.6030   118.4000    92.4670 n          1 S7Y      -0.482800
      2 C          100.0520   119.2580    93.1300 cc         1 S7Y      -0.014300
      3 O          103.4930   120.1710    93.5910 o          1 S7Y      -0.641500
      4 C1         100.1690   117.9010    92.5460 c6         1 S7Y      -0.037200
      5 C10         98.4650   122.1060    94.6050 ca         1 S7Y      -0.143000
      6 C11        104.0030   116.4100    92.6350 cc         1 S7Y      -0.251900
      7 C12        100.4780   123.3930    95.0280 ca         1 S7Y      -0.152000
      8 C13         99.0850   123.2480    95.0820 ca         1 S7Y      -0.114000
      9 C14        103.9070   115.8670    93.8900 cd         1 S7Y       0.344600
     10 C15        103.6530   116.5770    95.1750 c3         1 S7Y      -0.114400
     11 C16        104.2410   114.2320    92.5550 cc         1 S7Y       0.393400
     12 C2         101.1530   120.0370    93.3900 cd         1 S7Y      -0.222400
     13 C3         101.4620   117.8560    91.7440 c6         1 S7Y       0.114000
     14 C4         100.6840   121.2410    94.0050 ca         1 S7Y      -0.040800
     15 C5          99.2800   121.1140    94.0730 ca         1 S7Y      -0.060200
     16 C6         102.5120   119.5700    93.1590 c          1 S7Y       0.757700
     17 C7         103.8980   117.8210    92.1620 c3         1 S7Y       0.179300
     18 C8          97.5730   119.4010    93.4600 c3         1 S7Y       0.030600
     19 C9         101.2840   122.4030    94.4950 ca         1 S7Y      -0.071000
     20 N1          98.9280   119.8920    93.5380 na         1 S7Y      -0.041400
     21 N2         104.2130   115.3450    91.8010 na         1 S7Y      -0.302900
     22 N3         104.0580   114.5090    93.8210 nd         1 S7Y      -0.679000
     23 H3          99.3400   117.6570    91.8810 hc         1 S7Y       0.066700
     24 H4         100.1770   117.1520    93.3440 hc         1 S7Y       0.066700
     25 H5          97.3890   121.9980    94.6510 ha         1 S7Y       0.131000
     26 H6         100.9290   124.2980    95.4140 ha         1 S7Y       0.131000
     27 H7          98.4840   124.0430    95.5050 ha         1 S7Y       0.129000
     28 H8         104.2490   116.1500    95.9820 hc         1 S7Y       0.048033
     29 H9         103.9000   117.6350    95.1000 hc         1 S7Y       0.048033
     30 H10        102.6050   116.5090    95.4740 hc         1 S7Y       0.048033
     31 H11        104.4020   113.2520    92.1330 h5         1 S7Y       0.054100
     32 H12        101.6850   116.8220    91.4870 h1         1 S7Y       0.044700
     33 H13        101.3230   118.4000    90.8030 h1         1 S7Y       0.044700
     34 H15        104.6620   118.4390    92.6290 h1         1 S7Y       0.064700
     35 H16        104.0800   117.8650    91.0820 h1         1 S7Y       0.064700
     36 H17         96.9490   120.0870    92.8870 h1         1 S7Y       0.051700
     37 H18         97.5600   118.4330    92.9680 h1         1 S7Y       0.051700
     38 H19         97.1470   119.2850    94.4560 h1         1 S7Y       0.051700
     39 H20        102.3580   122.5250    94.4600 ha         1 S7Y       0.155000
     40 H21        104.3330   115.3870    90.8010 hn         1 S7Y       0.297700
@<TRIPOS>BOND
     1     1    13 1   
     2     1    16 1   
     3     1    17 1   
     4     2     4 1   
     5     2    12 2   
     6     2    20 1   
     7     3    16 2   
     8     4    13 1   
     9     4    23 1   
    10     4    24 1   
    11     5     8 ar  
    12     5    15 ar  
    13     5    25 1   
    14     6     9 2   
    15     6    17 1   
    16     6    21 1   
    17     7     8 ar  
    18     7    19 ar  
    19     7    26 1   
    20     8    27 1   
    21     9    10 1   
    22     9    22 1   
    23    10    28 1   
    24    10    29 1   
    25    10    30 1   
    26    11    21 1   
    27    11    22 2   
    28    11    31 1   
    29    12    14 1   
    30    12    16 1   
    31    13    32 1   
    32    13    33 1   
    33    14    15 ar  
    34    14    19 ar  
    35    15    20 1   
    36    17    34 1   
    37    17    35 1   
    38    18    20 1   
    39    18    36 1   
    40    18    37 1   
    41    18    38 1   
    42    19    39 1   
    43    21    40 1   
@<TRIPOS>SUBSTRUCTURE
     1 S7Y         1 TEMP              0 ****  ****    0 ROOT
