@<TRIPOS>MOLECULE
S7Z
   32    33     1     0     0
SMALL
No Charge or Current Charge


@<TRIPOS>ATOM
      1 CAA         -9.2680   -15.1220     3.1270 c3         1 S7Z       0.203900
      2 CB         -15.8320   -17.4220     1.7990 c3         1 S7Z       0.203900
      3 OB         -15.3850   -16.3300     2.6150 oh         1 S7Z      -0.660500
      4 CB1        -12.4070   -19.4390    -0.0090 ca         1 S7Z      -0.054600
      5 NB1        -11.2900   -20.0910    -0.5950 ne         1 S7Z      -0.099900
      6 CB2        -13.0560   -18.3770    -0.6750 ca         1 S7Z       0.221000
      7 CB3        -14.1540   -17.7250    -0.0920 ca         1 S7Z      -0.157250
      8 CA1         -9.8940   -18.5520     0.5040 ca         1 S7Z      -0.054600
      9 CA2         -9.8350   -17.2440    -0.0220 ca         1 S7Z       0.221000
     10 CA3         -9.6390   -16.1400     0.8230 ca         1 S7Z      -0.157250
     11 CA4         -9.4820   -16.3210     2.2090 ca         1 S7Z      -0.021300
     12 CA5         -9.5050   -17.6260     2.7350 ca         1 S7Z      -0.157250
     13 CA6         -9.7000   -18.7300     1.8890 ca         1 S7Z       0.221000
     14 CB4        -14.6400   -18.1310     1.1640 ca         1 S7Z      -0.021300
     15 CB5        -14.0190   -19.2110     1.8190 ca         1 S7Z      -0.157250
     16 CB6        -12.9210   -19.8620     1.2350 ca         1 S7Z       0.221000
     17 FA6         -9.6850   -19.9720     2.4240 f          1 S7Z      -0.160250
     18 FB2        -12.6360   -17.9790    -1.8980 f          1 S7Z      -0.160250
     19 FB6        -12.3700   -20.9150     1.8800 f          1 S7Z      -0.160250
     20 NA1        -10.1030   -19.6750    -0.3550 nf         1 S7Z      -0.099900
     21 OA          -7.8700   -14.8330     3.2530 oh         1 S7Z      -0.660500
     22 H1          -9.8030   -14.2540     2.7170 h1         1 S7Z       0.037950
     23 H12         -9.7040   -15.3380     4.1110 h1         1 S7Z       0.037950
     24 H3         -16.5000   -17.0590     1.0070 h1         1 S7Z       0.037950
     25 H4         -16.4010   -18.1420     2.4020 h1         1 S7Z       0.037950
     26 H5         -16.1900   -15.9140     2.9950 ho         1 S7Z       0.451000
     27 H6         -14.6280   -16.9030    -0.6220 ha         1 S7Z       0.148500
     28 H7          -9.6020   -15.1410     0.3940 ha         1 S7Z       0.148500
     29 H8          -9.3620   -17.7900     3.8000 ha         1 S7Z       0.148500
     30 H9         -14.3880   -19.5500     2.7840 ha         1 S7Z       0.148500
     31 H10         -7.7930   -14.0560     3.8510 ho         1 S7Z       0.451000
     32 FA2         -9.9510   -17.0350    -1.3530 f          1 S7Z      -0.160250
@<TRIPOS>BOND
     1     1    11 1   
     2     1    21 1   
     3     1    22 1   
     4     1    23 1   
     5     2     3 1   
     6     2    14 1   
     7     2    24 1   
     8     2    25 1   
     9     3    26 1   
    10     4     5 1   
    11     4     6 ar  
    12     4    16 ar  
    13     5    20 2   
    14     6     7 ar  
    15     6    18 1   
    16     7    14 ar  
    17     7    27 1   
    18     8     9 ar  
    19     8    13 ar  
    20     8    20 1   
    21     9    10 ar  
    22     9    32 1   
    23    10    11 ar  
    24    10    28 1   
    25    11    12 ar  
    26    12    13 ar  
    27    12    29 1   
    28    13    17 1   
    29    14    15 ar  
    30    15    16 ar  
    31    15    30 1   
    32    16    19 1   
    33    21    31 1   
@<TRIPOS>SUBSTRUCTURE
     1 S7Z         1 TEMP              0 ****  ****    0 ROOT
