@<TRIPOS>MOLECULE
S7Z
   32    33     1     0     0
SMALL
abcg2


@<TRIPOS>ATOM
      1 CAA         -8.4710   -14.7780     2.4140 c3         1 S7Z       0.203900
      2 CB         -16.1610   -17.7350     2.0370 c3         1 S7Z       0.203900
      3 OB         -16.5870   -18.4840     3.1680 oh         1 S7Z      -0.660500
      4 CB1        -12.5120   -19.3560     0.3790 ca         1 S7Z      -0.054600
      5 NB1        -11.4130   -19.9980    -0.2550 ne         1 S7Z      -0.099900
      6 CB2        -12.9800   -18.0800     0.0530 ca         1 S7Z       0.221000
      7 CB3        -14.1370   -17.5550     0.5830 ca         1 S7Z      -0.157250
      8 CA1         -9.9440   -18.2980     0.3850 ca         1 S7Z      -0.054600
      9 CA2         -9.2610   -17.2770    -0.2810 ca         1 S7Z       0.221000
     10 CA3         -8.7910   -16.1520     0.3520 ca         1 S7Z      -0.157250
     11 CA4         -8.9660   -16.0240     1.7320 ca         1 S7Z      -0.021300
     12 CA5         -9.6020   -17.0370     2.4420 ca         1 S7Z      -0.157250
     13 CA6        -10.0750   -18.1430     1.7640 ca         1 S7Z       0.221000
     14 CB4        -14.8860   -18.3110     1.4850 ca         1 S7Z      -0.021300
     15 CB5        -14.4600   -19.5920     1.8280 ca         1 S7Z      -0.157250
     16 CB6        -13.3060   -20.0870     1.2600 ca         1 S7Z       0.221000
     17 FA6        -10.6470   -19.1390     2.4720 f          1 S7Z      -0.160250
     18 FB2        -12.2910   -17.3510    -0.8490 f          1 S7Z      -0.160250
     19 FB6        -12.8870   -21.3230     1.5970 f          1 S7Z      -0.160250
     20 NA1        -10.2860   -19.4780    -0.3290 nf         1 S7Z      -0.099900
     21 OA          -8.5170   -14.9380     3.8250 oh         1 S7Z      -0.660500
     22 H1          -7.4500   -14.5690     2.0760 h1         1 S7Z       0.037950
     23 H12         -9.0980   -13.9350     2.0990 h1         1 S7Z       0.037950
     24 H3         -15.9950   -16.6850     2.3010 h1         1 S7Z       0.037950
     25 H4         -16.9250   -17.7580     1.2510 h1         1 S7Z       0.037950
     26 H5         -17.4730   -18.1860     3.4080 ho         1 S7Z       0.451000
     27 H6         -14.4480   -16.5610     0.2870 ha         1 S7Z       0.148500
     28 H7          -8.2930   -15.3850    -0.2270 ha         1 S7Z       0.148500
     29 H8          -9.7280   -16.9760     3.5130 ha         1 S7Z       0.148500
     30 H9         -15.0150   -20.1970     2.5290 ha         1 S7Z       0.148500
     31 H10         -8.3130   -14.0870     4.2300 ho         1 S7Z       0.451000
     32 FA2         -9.0970   -17.4020    -1.6120 f          1 S7Z      -0.160250
@<TRIPOS>BOND
     1     1    11 1   
     2     1    21 1   
     3     1    22 1   
     4     1    23 1   
     5     2     3 1   
     6     2    14 1   
     7     2    24 1   
     8     2    25 1   
     9     3    26 1   
    10     4     5 1   
    11     4     6 ar  
    12     4    16 ar  
    13     5    20 2   
    14     6     7 ar  
    15     6    18 1   
    16     7    14 ar  
    17     7    27 1   
    18     8     9 ar  
    19     8    13 ar  
    20     8    20 1   
    21     9    10 ar  
    22     9    32 1   
    23    10    11 ar  
    24    10    28 1   
    25    11    12 ar  
    26    12    13 ar  
    27    12    29 1   
    28    13    17 1   
    29    14    15 ar  
    30    15    16 ar  
    31    15    30 1   
    32    16    19 1   
    33    21    31 1   
@<TRIPOS>SUBSTRUCTURE
     1 S7Z         1 TEMP              0 ****  ****    0 ROOT
