@<TRIPOS>MOLECULE
S80
   66    66     1     0     0
SMALL
No Charge or Current Charge


@<TRIPOS>ATOM
      1 C10          7.6380    49.2000    54.6120 c          1 S80       0.545000
      2 O4           7.1720    49.6140    55.6680 o          1 S80      -0.580000
      3 N3           9.0360    49.1210    54.4330 n          1 S80      -0.401800
      4 C9           9.6270    48.3770    53.3000 c3         1 S80       0.107000
      5 C8           9.5790    49.1750    51.9860 c3         1 S80      -0.097400
      6 C7           8.2000    49.1320    51.2910 c3         1 S80      -0.071400
      7 C6           7.0140    49.6530    52.1350 c3         1 S80      -0.082400
      8 C5           6.7080    48.8230    53.4150 c3         1 S80       0.032700
      9 N2           5.2930    48.9800    53.8140 ns         1 S80      -0.486900
     10 C4           4.2230    48.3630    53.2060 c          1 S80       0.604100
     11 C3           2.8370    48.7520    53.7660 c3         1 S80      -0.124700
     12 C2           1.9550    49.4590    52.6770 c3         1 S80      -0.122700
     13 C1           0.5960    49.9400    53.2460 c          1 S80       0.615100
     14 O1           0.5050    50.7440    54.1650 o          1 S80      -0.576100
     15 N1          -0.5250    49.3630    52.6570 ns         1 S80      -0.399400
     16 O2          -1.8510    49.8890    52.9030 oh         1 S80      -0.410100
     17 C11          2.6820    50.5970    51.8890 c3         1 S80      -0.067400
     18 C12          3.2240    51.7860    52.7290 c3         1 S80      -0.080400
     19 C13          4.0380    52.8080    51.9070 c3         1 S80       0.161600
     20 O5           3.1990    53.4580    50.9450 oh         1 S80      -0.668000
     21 C14          2.1230    47.5200    54.4040 c3         1 S80      -0.071400
     22 C15          2.9310    46.7520    55.4900 c3         1 S80      -0.065700
     23 C17          3.2980    47.6350    56.7080 c3         1 S80      -0.085600
     24 C16          2.1690    45.4870    55.9470 c3         1 S80      -0.085600
     25 O3           4.3690    47.5680    52.2880 o          1 S80      -0.623100
     26 C18          9.9620    49.6400    55.4760 c3         1 S80       0.104000
     27 C19         10.3330    48.6140    56.5740 c3         1 S80       0.132600
     28 O6          11.1040    47.5460    55.9900 os         1 S80      -0.472000
     29 C20         11.4950    46.5170    56.9140 c3         1 S80       0.146900
     30 H91         10.6800    48.1660    53.5270 h1         1 S80       0.060200
     31 H92          9.1280    47.4060    53.1810 h1         1 S80       0.060200
     32 H81          9.8760    50.2140    52.1730 hc         1 S80       0.051200
     33 H82         10.3230    48.7550    51.2980 hc         1 S80       0.051200
     34 H71          8.2590    49.7240    50.3690 hc         1 S80       0.044700
     35 H72          7.9880    48.1010    50.9790 hc         1 S80       0.044700
     36 H61          7.1820    50.7020    52.4080 hc         1 S80       0.050700
     37 H62          6.1310    49.6460    51.4850 hc         1 S80       0.050700
     38 H5           6.8760    47.7600    53.1990 h1         1 S80       0.101700
     39 HN2          5.0910    49.5850    54.6020 hn         1 S80       0.326500
     40 H3           2.9950    49.4810    54.5690 hc         1 S80       0.078700
     41 H2           1.7260    48.6980    51.9210 hc         1 S80       0.066700
     42 HN1         -0.4140    48.8090    51.8090 hn         1 S80       0.328500
     43 HO2         -2.3800    49.0890    53.1320 ho         1 S80       0.435000
     44 H111         3.5140    50.1640    51.3200 hc         1 S80       0.053700
     45 H112         1.9870    50.9890    51.1360 hc         1 S80       0.053700
     46 H121         2.3950    52.3100    53.2180 hc         1 S80       0.060200
     47 H122         3.8730    51.4120    53.5280 hc         1 S80       0.060200
     48 H131         4.4700    53.5500    52.5910 h1         1 S80       0.019200
     49 H132         4.8690    52.2920    51.4060 h1         1 S80       0.019200
     50 HO5          3.7640    54.1000    50.4610 ho         1 S80       0.439000
     51 H141         1.1720    47.8400    54.8480 hc         1 S80       0.053200
     52 H142         1.8650    46.8170    53.6010 hc         1 S80       0.053200
     53 H15          3.8700    46.4050    55.0410 hc         1 S80       0.057700
     54 H171         3.8170    47.0430    57.4710 hc         1 S80       0.033700
     55 H172         3.9660    48.4540    56.4210 hc         1 S80       0.033700
     56 H173         2.3980    48.0660    57.1630 hc         1 S80       0.033700
     57 H161         2.7620    44.9160    56.6710 hc         1 S80       0.033700
     58 H162         1.2150    45.7540    56.4190 hc         1 S80       0.033700
     59 H163         1.9580    44.8310    55.0930 hc         1 S80       0.033700
     60 H181        10.8840    49.9880    54.9930 h1         1 S80       0.064200
     61 H182         9.5100    50.5170    55.9550 h1         1 S80       0.064200
     62 H191        10.9160    49.1230    57.3530 h1         1 S80       0.039700
     63 H192         9.4140    48.2270    57.0340 h1         1 S80       0.039700
     64 H201        12.0760    45.7420    56.3990 h1         1 S80       0.031033
     65 H202        12.1160    46.9310    57.7200 h1         1 S80       0.031033
     66 H203        10.6140    46.0410    57.3640 h1         1 S80       0.031033
@<TRIPOS>BOND
     1     1     2 2   
     2     1     3 1   
     3     1     8 1   
     4     3     4 1   
     5     3    26 1   
     6     4     5 1   
     7     4    30 1   
     8     4    31 1   
     9     5     6 1   
    10     5    32 1   
    11     5    33 1   
    12     6     7 1   
    13     6    34 1   
    14     6    35 1   
    15     7     8 1   
    16     7    36 1   
    17     7    37 1   
    18     8     9 1   
    19     8    38 1   
    20     9    10 1   
    21     9    39 1   
    22    10    11 1   
    23    10    25 2   
    24    11    12 1   
    25    11    21 1   
    26    11    40 1   
    27    12    13 1   
    28    12    17 1   
    29    12    41 1   
    30    13    14 2   
    31    13    15 1   
    32    15    16 1   
    33    15    42 1   
    34    16    43 1   
    35    17    18 1   
    36    17    44 1   
    37    17    45 1   
    38    18    19 1   
    39    18    46 1   
    40    18    47 1   
    41    19    20 1   
    42    19    48 1   
    43    19    49 1   
    44    20    50 1   
    45    21    22 1   
    46    21    51 1   
    47    21    52 1   
    48    22    23 1   
    49    22    24 1   
    50    22    53 1   
    51    23    54 1   
    52    23    55 1   
    53    23    56 1   
    54    24    57 1   
    55    24    58 1   
    56    24    59 1   
    57    26    27 1   
    58    26    60 1   
    59    26    61 1   
    60    27    28 1   
    61    27    62 1   
    62    27    63 1   
    63    28    29 1   
    64    29    64 1   
    65    29    65 1   
    66    29    66 1   
@<TRIPOS>SUBSTRUCTURE
     1 S80         1 TEMP              0 ****  ****    0 ROOT
