@<TRIPOS>MOLECULE
S80
   66    66     1     0     0
SMALL
abcg2


@<TRIPOS>ATOM
      1 C10          7.7140    49.1640    54.7590 c          1 S80       0.545000
      2 O4           7.1870    49.2140    55.8730 o          1 S80      -0.580000
      3 N3           9.0290    48.9220    54.5940 n          1 S80      -0.401800
      4 C9           9.6630    48.7720    53.2770 c3         1 S80       0.107000
      5 C8           9.8310    50.0960    52.5360 c3         1 S80      -0.097400
      6 C7           8.5480    50.5900    51.8690 c3         1 S80      -0.071400
      7 C6           7.3350    50.7400    52.7880 c3         1 S80      -0.082400
      8 C5           6.8940    49.4380    53.4890 c3         1 S80       0.032700
      9 N2           5.4900    49.4980    53.8290 ns         1 S80      -0.486900
     10 C4           4.5840    48.5870    53.4300 c          1 S80       0.604100
     11 C3           3.1540    48.8470    53.8860 c3         1 S80      -0.124700
     12 C2           2.2440    48.9920    52.6490 c3         1 S80      -0.122700
     13 C1           0.8300    49.3380    53.1050 c          1 S80       0.615100
     14 O1           0.5660    50.2160    53.9260 o          1 S80      -0.576100
     15 N1          -0.1100    48.5890    52.5110 ns         1 S80      -0.399400
     16 O2          -1.4560    48.8740    52.7570 oh         1 S80      -0.410100
     17 C11          2.7430    50.0300    51.6200 c3         1 S80      -0.067400
     18 C12          2.9320    51.4610    52.1250 c3         1 S80      -0.080400
     19 C13          3.3180    52.4180    51.0140 c3         1 S80       0.161600
     20 O5           2.2010    52.5770    50.1280 oh         1 S80      -0.668000
     21 C14          2.6990    47.6940    54.7940 c3         1 S80      -0.071400
     22 C15          3.3780    47.6590    56.1700 c3         1 S80      -0.065700
     23 C17          3.0090    48.8830    57.0140 c3         1 S80      -0.085600
     24 C16          3.0120    46.3580    56.8890 c3         1 S80      -0.085600
     25 O3           4.8730    47.6100    52.7340 o          1 S80      -0.623100
     26 C18          9.8540    48.7190    55.7840 c3         1 S80       0.104000
     27 C19          9.8170    47.2960    56.3080 c3         1 S80       0.132600
     28 O6          10.3880    46.4230    55.3450 os         1 S80      -0.472000
     29 C20         10.3010    45.0620    55.7300 c3         1 S80       0.146900
     30 H91         10.6310    48.3120    53.4550 h1         1 S80       0.060200
     31 H92          9.0900    48.0650    52.6720 h1         1 S80       0.060200
     32 H81         10.2130    50.8440    53.2370 hc         1 S80       0.051200
     33 H82         10.5950    49.9610    51.7660 hc         1 S80       0.051200
     34 H71          8.7380    51.5550    51.3940 hc         1 S80       0.044700
     35 H72          8.2850    49.8930    51.0660 hc         1 S80       0.044700
     36 H61          7.5090    51.5140    53.5410 hc         1 S80       0.050700
     37 H62          6.4890    51.0720    52.1820 hc         1 S80       0.050700
     38 H5           6.9960    48.5990    52.8010 h1         1 S80       0.101700
     39 HN2          5.1910    50.2240    54.4590 hn         1 S80       0.326500
     40 H3           3.1210    49.7820    54.4440 hc         1 S80       0.078700
     41 H2           2.2150    48.0250    52.1430 hc         1 S80       0.066700
     42 HN1          0.0830    47.9080    51.7910 hn         1 S80       0.328500
     43 HO2         -1.9460    48.2000    52.2650 ho         1 S80       0.435000
     44 H111         3.6960    49.6690    51.2230 hc         1 S80       0.053700
     45 H112         2.0460    50.0360    50.7800 hc         1 S80       0.053700
     46 H121         2.0190    51.8220    52.6010 hc         1 S80       0.060200
     47 H122         3.7200    51.4970    52.8800 hc         1 S80       0.060200
     48 H131         3.5970    53.3880    51.4410 h1         1 S80       0.019200
     49 H132         4.1830    52.0300    50.4630 h1         1 S80       0.019200
     50 HO5          2.4790    53.1260    49.3860 ho         1 S80       0.439000
     51 H141         1.6170    47.7580    54.9410 hc         1 S80       0.053200
     52 H142         2.8900    46.7540    54.2710 hc         1 S80       0.053200
     53 H15          4.4610    47.6680    56.0110 hc         1 S80       0.057700
     54 H171         3.3270    48.7500    58.0500 hc         1 S80       0.033700
     55 H172         3.4810    49.7930    56.6400 hc         1 S80       0.033700
     56 H173         1.9270    49.0430    57.0140 hc         1 S80       0.033700
     57 H161         3.3660    46.3640    57.9220 hc         1 S80       0.033700
     58 H162         1.9260    46.2220    56.9100 hc         1 S80       0.033700
     59 H163         3.4480    45.4930    56.3840 hc         1 S80       0.033700
     60 H181        10.8780    48.9930    55.5290 h1         1 S80       0.064200
     61 H182         9.5020    49.3860    56.5700 h1         1 S80       0.064200
     62 H191        10.3840    47.2450    57.2470 h1         1 S80       0.039700
     63 H192         8.7840    46.9980    56.5170 h1         1 S80       0.039700
     64 H201        10.7420    44.4680    54.9310 h1         1 S80       0.031033
     65 H202        10.8500    44.8780    56.6620 h1         1 S80       0.031033
     66 H203         9.2570    44.7590    55.8730 h1         1 S80       0.031033
@<TRIPOS>BOND
     1     1     2 2   
     2     1     3 1   
     3     1     8 1   
     4     3     4 1   
     5     3    26 1   
     6     4     5 1   
     7     4    30 1   
     8     4    31 1   
     9     5     6 1   
    10     5    32 1   
    11     5    33 1   
    12     6     7 1   
    13     6    34 1   
    14     6    35 1   
    15     7     8 1   
    16     7    36 1   
    17     7    37 1   
    18     8     9 1   
    19     8    38 1   
    20     9    10 1   
    21     9    39 1   
    22    10    11 1   
    23    10    25 2   
    24    11    12 1   
    25    11    21 1   
    26    11    40 1   
    27    12    13 1   
    28    12    17 1   
    29    12    41 1   
    30    13    14 2   
    31    13    15 1   
    32    15    16 1   
    33    15    42 1   
    34    16    43 1   
    35    17    18 1   
    36    17    44 1   
    37    17    45 1   
    38    18    19 1   
    39    18    46 1   
    40    18    47 1   
    41    19    20 1   
    42    19    48 1   
    43    19    49 1   
    44    20    50 1   
    45    21    22 1   
    46    21    51 1   
    47    21    52 1   
    48    22    23 1   
    49    22    24 1   
    50    22    53 1   
    51    23    54 1   
    52    23    55 1   
    53    23    56 1   
    54    24    57 1   
    55    24    58 1   
    56    24    59 1   
    57    26    27 1   
    58    26    60 1   
    59    26    61 1   
    60    27    28 1   
    61    27    62 1   
    62    27    63 1   
    63    28    29 1   
    64    29    64 1   
    65    29    65 1   
    66    29    66 1   
@<TRIPOS>SUBSTRUCTURE
     1 S80         1 TEMP              0 ****  ****    0 ROOT
