@<TRIPOS>MOLECULE
S81
   47    48     1     0     0
SMALL
bcc


@<TRIPOS>ATOM
      1 C1          -0.8590     0.3830    -0.8990 c6         1 S81       0.349900
      2 C10          1.3380    -0.2010    -0.1050 c6         1 S81       0.127100
      3 C11          2.1480     1.0730     0.1300 c6         1 S81       0.096100
      4 C12          3.6450     0.8340    -0.0440 c6         1 S81       0.164100
      5 C2          -1.7120     1.6030    -0.5340 c6         1 S81       0.138500
      6 C3          -2.8310     1.2370     0.4430 c6         1 S81       0.094100
      7 C4          -3.5720     0.0120    -0.0630 c6         1 S81       0.113600
      8 C5          -2.5950    -1.1300    -0.2930 c6         1 S81       0.120100
      9 C6          -3.2290    -2.4030    -0.8160 c3         1 S81       0.160800
     10 C7           4.1260    -0.2760     0.8800 c6         1 S81       0.156500
     11 C8           3.3030    -1.5360     0.6110 c6         1 S81      -0.121400
     12 C9           1.8020    -1.3400     0.7900 c6         1 S81       0.175500
     13 F99         -4.5110    -0.3750     0.8960 f          1 S81      -0.247300
     14 N2          -0.8460     2.6730    -0.0570 n8         1 S81      -0.897800
     15 N6          -2.2400    -3.4660    -0.8530 n8         1 S81      -0.894800
     16 N7           5.5590    -0.4730     0.7270 n8         1 S81      -0.852800
     17 N9           1.1120    -2.5680     0.4280 n8         1 S81      -0.897800
     18 O1          -0.0300     0.0680     0.1730 os         1 S81      -0.454600
     19 O11          1.7860     2.0970    -0.7630 oh         1 S81      -0.646800
     20 O12          4.3650     2.0150     0.2160 oh         1 S81      -0.575800
     21 O23         -3.6710     2.3570     0.5680 oh         1 S81      -0.597800
     22 O5          -1.6530    -0.7060    -1.2660 os         1 S81      -0.419600
     23 H1          -0.2710     0.6180    -1.7920 h2         1 S81       0.093700
     24 H2           1.4550    -0.5200    -1.1520 h1         1 S81       0.068700
     25 H3           1.9800     1.3860     1.1750 h1         1 S81       0.041700
     26 H4           3.8170     0.5000    -1.0840 h1         1 S81       0.034700
     27 H5          -2.1770     1.9420    -1.4650 h1         1 S81       0.083700
     28 H6          -2.3800     0.9760     1.4130 h1         1 S81       0.055700
     29 H7          -4.1190     0.2460    -0.9840 h1         1 S81       0.077700
     30 H8          -2.0950    -1.3700     0.6550 h1         1 S81       0.073700
     31 H9          -4.0250    -2.7000    -0.1300 h1         1 S81       0.042200
     32 H10         -3.7080    -2.1930    -1.7830 h1         1 S81       0.042200
     33 H11          3.9500     0.0440     1.9150 h1         1 S81       0.070700
     34 H12          3.4940    -1.8790    -0.4130 hc         1 S81       0.050700
     35 H13          3.6450    -2.3360     1.2750 hc         1 S81       0.050700
     36 H14          1.6190    -1.0380     1.8350 h1         1 S81       0.026700
     37 H15         -1.2710     3.5740    -0.2260 hn         1 S81       0.363800
     38 H16         -0.7160     2.6040     0.9460 hn         1 S81       0.363800
     39 H18         -2.6820    -4.3310    -1.1350 hn         1 S81       0.350800
     40 H19         -1.5420    -3.2650    -1.5570 hn         1 S81       0.350800
     41 H21          5.8540    -1.2200     1.3450 hn         1 S81       0.333800
     42 H22          5.7490    -0.8100    -0.2100 hn         1 S81       0.333800
     43 H24          1.3670    -3.2990     1.0810 hn         1 S81       0.353300
     44 H25          0.1090    -2.4590     0.5150 hn         1 S81       0.353300
     45 H27          0.8750     2.4100    -0.5450 ho         1 S81       0.456000
     46 H28          3.9340     2.7200    -0.2810 ho         1 S81       0.417000
     47 H29         -4.2240     2.2450     1.3480 ho         1 S81       0.422000
@<TRIPOS>BOND
     1     1     5 1   
     2     1    18 1   
     3     1    22 1   
     4     1    23 1   
     5     2     3 1   
     6     2    12 1   
     7     2    18 1   
     8     2    24 1   
     9     3     4 1   
    10     3    19 1   
    11     3    25 1   
    12     4    10 1   
    13     4    20 1   
    14     4    26 1   
    15     5     6 1   
    16     5    14 1   
    17     5    27 1   
    18     6     7 1   
    19     6    21 1   
    20     6    28 1   
    21     7     8 1   
    22     7    13 1   
    23     7    29 1   
    24     8     9 1   
    25     8    22 1   
    26     8    30 1   
    27     9    15 1   
    28     9    31 1   
    29     9    32 1   
    30    10    11 1   
    31    10    16 1   
    32    10    33 1   
    33    11    12 1   
    34    11    34 1   
    35    11    35 1   
    36    12    17 1   
    37    12    36 1   
    38    14    37 1   
    39    14    38 1   
    40    15    39 1   
    41    15    40 1   
    42    16    41 1   
    43    16    42 1   
    44    17    43 1   
    45    17    44 1   
    46    19    45 1   
    47    20    46 1   
    48    21    47 1   
@<TRIPOS>SUBSTRUCTURE
     1 S81         1 TEMP              0 ****  ****    0 ROOT
