@<TRIPOS>MOLECULE
S81
   47    48     1     0     0
SMALL
No Charge or Current Charge


@<TRIPOS>ATOM
      1 C1          -0.8140     0.2860    -0.8780 c6         1 S81       0.396300
      2 C10          1.4060    -0.3150    -0.0020 c6         1 S81       0.150300
      3 C11          2.1640     1.0590     0.0690 c6         1 S81       0.119300
      4 C12          3.6840     0.8460    -0.2060 c6         1 S81       0.187300
      5 C2          -1.6370     1.5760    -0.5010 c6         1 S81       0.138500
      6 C3          -2.7840     1.2140     0.4950 c6         1 S81       0.117300
      7 C4          -3.6240     0.0310    -0.0590 c6         1 S81       0.132300
      8 C5          -2.7070    -1.1790    -0.3860 c6         1 S81       0.143300
      9 C6          -3.5020    -2.3670    -1.0200 c3         1 S81       0.160800
     10 C7           4.3030    -0.1580     0.8330 c6         1 S81       0.156500
     11 C8           3.5430    -1.5090     0.8030 c6         1 S81      -0.121400
     12 C9           2.0250    -1.3080     1.0370 c6         1 S81       0.175500
     13 F99         -4.5590    -0.3530     0.9290 f          1 S81      -0.266000
     14 N2          -0.7930     2.6970     0.0510 n8         1 S81      -1.008200
     15 N6          -2.6690    -3.5470    -1.3690 n8         1 S81      -1.005200
     16 N7           5.7540    -0.4110     0.6120 n8         1 S81      -0.963200
     17 N9           1.3330    -2.6160     1.0070 n8         1 S81      -1.008200
     18 O1          -0.0250    -0.1850     0.2380 os         1 S81      -0.501000
     19 O11          1.6420     2.0560    -0.8440 oh         1 S81      -0.769000
     20 O12          4.3280     2.1290    -0.1760 oh         1 S81      -0.638000
     21 O23         -3.6150     2.3650     0.7590 oh         1 S81      -0.660000
     22 O5          -1.6780    -0.7790    -1.3300 os         1 S81      -0.466000
     23 H1          -0.1480     0.5520    -1.7140 h2         1 S81       0.093700
     24 H2           1.5520    -0.7480    -1.0040 h1         1 S81       0.068700
     25 H3           2.0630     1.4330     1.0990 h1         1 S81       0.041700
     26 H4           3.7890     0.4100    -1.2110 h1         1 S81       0.034700
     27 H5          -2.0880     1.9400    -1.4370 h1         1 S81       0.083700
     28 H6          -2.3190     0.8760     1.4330 h1         1 S81       0.055700
     29 H7          -4.1840     0.3390    -0.9540 h1         1 S81       0.077700
     30 H8          -2.2300    -1.5360     0.5390 h1         1 S81       0.073700
     31 H9          -4.2900    -2.6890    -0.3250 h1         1 S81       0.042200
     32 H10         -3.9890    -2.0040    -1.9360 h1         1 S81       0.042200
     33 H11          4.1950     0.2740     1.8410 h1         1 S81       0.070700
     34 H12          3.7040    -2.0070    -0.1640 hc         1 S81       0.050700
     35 H13          3.9480    -2.1800     1.5740 hc         1 S81       0.050700
     36 H14          1.8670    -0.8870     2.0410 h1         1 S81       0.026700
     37 H15         -1.3720     3.5490     0.0150 hn         1 S81       0.419000
     38 H16         -0.7270     2.5520     1.0690 hn         1 S81       0.419000
     39 H18         -3.2130    -4.1770    -1.9710 hn         1 S81       0.406000
     40 H19         -1.9080    -3.2230    -1.9790 hn         1 S81       0.406000
     41 H21          6.0490    -1.1990     1.1990 hn         1 S81       0.389000
     42 H22          5.8910    -0.7550    -0.3450 hn         1 S81       0.389000
     43 H24          1.3390    -3.0130     1.9530 hn         1 S81       0.408500
     44 H25          0.3390    -2.4170     0.8370 hn         1 S81       0.408500
     45 H27          0.7240     2.3100    -0.5020 ho         1 S81       0.555000
     46 H28          3.6440     2.7290    -0.5530 ho         1 S81       0.456000
     47 H29         -4.3410     2.0590     1.3480 ho         1 S81       0.461000
@<TRIPOS>BOND
     1     1     5 1   
     2     1    18 1   
     3     1    22 1   
     4     1    23 1   
     5     2     3 1   
     6     2    12 1   
     7     2    18 1   
     8     2    24 1   
     9     3     4 1   
    10     3    19 1   
    11     3    25 1   
    12     4    10 1   
    13     4    20 1   
    14     4    26 1   
    15     5     6 1   
    16     5    14 1   
    17     5    27 1   
    18     6     7 1   
    19     6    21 1   
    20     6    28 1   
    21     7     8 1   
    22     7    13 1   
    23     7    29 1   
    24     8     9 1   
    25     8    22 1   
    26     8    30 1   
    27     9    15 1   
    28     9    31 1   
    29     9    32 1   
    30    10    11 1   
    31    10    16 1   
    32    10    33 1   
    33    11    12 1   
    34    11    34 1   
    35    11    35 1   
    36    12    17 1   
    37    12    36 1   
    38    14    37 1   
    39    14    38 1   
    40    15    39 1   
    41    15    40 1   
    42    16    41 1   
    43    16    42 1   
    44    17    43 1   
    45    17    44 1   
    46    19    45 1   
    47    20    46 1   
    48    21    47 1   
@<TRIPOS>SUBSTRUCTURE
     1 S81         1 TEMP              0 ****  ****    0 ROOT
