@<TRIPOS>MOLECULE
S82
   52    55     1     0     0
SMALL
bcc


@<TRIPOS>ATOM
      1 N1          -0.1060     2.2810    -0.3310 n          1 S82      -0.466800
      2 C2          -1.1060     1.5480    -0.9210 c          1 S82       0.773100
      3 N3          -2.0500     1.0260    -0.0850 ns         1 S82      -0.555900
      4 C4          -3.1620     0.3250    -0.6270 cx         1 S82       0.058700
      5 C5          -3.6990    -0.8290     0.1770 cx         1 S82      -0.095400
      6 C6          -2.9670    -1.0670    -1.1150 cx         1 S82      -0.097400
      7 C7          -5.1590    -1.0480     0.3170 ca         1 S82      -0.048300
      8 C8          -5.6730    -1.4490     1.5500 ca         1 S82      -0.125000
      9 C9          -7.0350    -1.6500     1.7270 ca         1 S82      -0.125500
     10 C10         -7.9130    -1.4500     0.6710 ca         1 S82      -0.128000
     11 C11         -7.4130    -1.0530    -0.5630 ca         1 S82      -0.125500
     12 C12         -6.0510    -0.8570    -0.7390 ca         1 S82      -0.125000
     13 O13         -1.1660     1.3770    -2.1320 o          1 S82      -0.624100
     14 C14          1.0020     2.7030    -1.1720 c6         1 S82       0.092000
     15 C15          2.1070     1.6550    -1.1970 c6         1 S82      -0.106400
     16 C16          2.5700     1.3440     0.2340 c6         1 S82      -0.098000
     17 C17          1.3770     0.9830     1.1300 c6         1 S82      -0.106400
     18 C18          0.3150     2.0730     1.0460 c6         1 S82       0.092000
     19 C19          3.6150     0.2880     0.2540 cc         1 S82       0.531700
     20 N20          4.8480     0.3810     0.6220 nd         1 S82      -0.724000
     21 C21          5.3240    -0.8870     0.4250 cd         1 S82       0.558300
     22 N22          4.4320    -1.7050    -0.0360 nc         1 S82      -0.375300
     23 O23          3.3020    -0.9350    -0.1530 os         1 S82      -0.136100
     24 C24          6.7380    -1.2700     0.7100 c3         1 S82      -0.089000
     25 C25          6.9870    -2.7610     0.5210 c3         1 S82      -0.087100
     26 C26          7.6840    -0.4300    -0.1500 c3         1 S82      -0.087100
     27 HN3         -2.1820     1.4260     0.8300 hn         1 S82       0.313500
     28 H4          -3.9030     0.9260    -1.1510 h1         1 S82       0.084700
     29 H5          -3.1330    -1.0610     1.0730 hc         1 S82       0.083700
     30 H6          -3.5340    -1.3870    -1.9800 hc         1 S82       0.084200
     31 H6A         -1.9730    -1.4880    -1.0470 hc         1 S82       0.084200
     32 H8          -4.9960    -1.6060     2.3820 ha         1 S82       0.129000
     33 H9          -7.4090    -1.9620     2.6940 ha         1 S82       0.130500
     34 H10         -8.9760    -1.6020     0.8060 ha         1 S82       0.131000
     35 H11         -8.0870    -0.8960    -1.3950 ha         1 S82       0.130500
     36 H12         -5.6890    -0.5500    -1.7130 ha         1 S82       0.129000
     37 H14          0.6470     2.9110    -2.1780 h1         1 S82       0.060950
     38 H14A         1.3890     3.6430    -0.7670 h1         1 S82       0.060950
     39 H15          1.7350     0.7490    -1.6840 hc         1 S82       0.065950
     40 H15A         2.9480     2.0200    -1.7910 hc         1 S82       0.065950
     41 H16          3.0470     2.2410     0.6420 hc         1 S82       0.081700
     42 H17          0.9400     0.0290     0.8210 hc         1 S82       0.065950
     43 H17A         1.7070     0.8700     2.1650 hc         1 S82       0.065950
     44 H18          0.7200     3.0180     1.4180 h1         1 S82       0.060950
     45 H18A        -0.5220     1.8310     1.6960 h1         1 S82       0.060950
     46 H24          6.9210    -1.0140     1.7590 hc         1 S82       0.070700
     47 H25          8.0190    -2.9960     0.7790 hc         1 S82       0.043533
     48 H25A         6.3400    -3.3660     1.1560 hc         1 S82       0.043533
     49 H25B         6.8250    -3.0660    -0.5140 hc         1 S82       0.043533
     50 H26          7.5360     0.6370     0.0120 hc         1 S82       0.043533
     51 H26A         8.7200    -0.6650     0.0950 hc         1 S82       0.043533
     52 H26B         7.5340    -0.6360    -1.2110 hc         1 S82       0.043533
@<TRIPOS>BOND
     1     1     2 1   
     2     1    14 1   
     3     1    18 1   
     4     2     3 1   
     5     2    13 2   
     6     3     4 1   
     7     3    27 1   
     8     4     5 1   
     9     4     6 1   
    10     4    28 1   
    11     5     6 1   
    12     5     7 1   
    13     5    29 1   
    14     6    30 1   
    15     6    31 1   
    16     7     8 ar  
    17     7    12 ar  
    18     8     9 ar  
    19     8    32 1   
    20     9    10 ar  
    21     9    33 1   
    22    10    11 ar  
    23    10    34 1   
    24    11    12 ar  
    25    11    35 1   
    26    12    36 1   
    27    14    15 1   
    28    14    37 1   
    29    14    38 1   
    30    15    16 1   
    31    15    39 1   
    32    15    40 1   
    33    16    17 1   
    34    16    19 1   
    35    16    41 1   
    36    17    18 1   
    37    17    42 1   
    38    17    43 1   
    39    18    44 1   
    40    18    45 1   
    41    19    20 2   
    42    19    23 1   
    43    20    21 1   
    44    21    22 2   
    45    21    24 1   
    46    22    23 1   
    47    24    25 1   
    48    24    26 1   
    49    24    46 1   
    50    25    47 1   
    51    25    48 1   
    52    25    49 1   
    53    26    50 1   
    54    26    51 1   
    55    26    52 1   
@<TRIPOS>SUBSTRUCTURE
     1 S82         1 TEMP              0 ****  ****    0 ROOT
