@<TRIPOS>MOLECULE
S82
   52    55     1     0     0
SMALL
No Charge or Current Charge


@<TRIPOS>ATOM
      1 N1          -0.1020     1.8410    -0.2630 n          1 S82      -0.399800
      2 C2          -1.3040     1.4900    -0.9140 c          1 S82       0.639100
      3 N3          -2.1800     0.7080    -0.2000 ns         1 S82      -0.488900
      4 C4          -3.4470     0.2430    -0.6970 cx         1 S82       0.058700
      5 C5          -4.1030    -0.9150     0.0230 cx         1 S82      -0.095400
      6 C6          -3.4920    -1.1180    -1.3450 cx         1 S82      -0.097400
      7 C7          -5.5940    -0.9760     0.2540 ca         1 S82      -0.048300
      8 C8          -6.0910    -1.5730     1.4310 ca         1 S82      -0.107000
      9 C9          -7.4740    -1.6410     1.6700 ca         1 S82      -0.107500
     10 C10         -8.3770    -1.1120     0.7330 ca         1 S82      -0.110000
     11 C11         -7.8940    -0.5150    -0.4420 ca         1 S82      -0.107500
     12 C12         -6.5100    -0.4470    -0.6820 ca         1 S82      -0.107000
     13 O13         -1.5600     1.8580    -2.0510 o          1 S82      -0.624100
     14 C14          0.9670     2.6120    -0.9490 c6         1 S82       0.092000
     15 C15          2.2510     1.7580    -1.0880 c6         1 S82      -0.106400
     16 C16          2.7220     1.2280     0.2970 c6         1 S82      -0.098000
     17 C17          1.5580     0.4830     1.0130 c6         1 S82      -0.106400
     18 C18          0.2980     1.3770     1.0960 c6         1 S82       0.092000
     19 C19          3.9370     0.3360     0.1560 cc         1 S82       0.487300
     20 N20          5.1350     0.5310     0.6670 nd         1 S82      -0.724000
     21 C21          5.8310    -0.5700     0.2290 cd         1 S82       0.558300
     22 N22          5.1270    -1.4120    -0.5110 nc         1 S82      -0.375300
     23 O23          3.8500    -0.8160    -0.5700 os         1 S82      -0.091700
     24 C24          7.2900    -0.8040     0.5670 c3         1 S82      -0.089000
     25 C25          7.4930    -2.0830     1.4140 c3         1 S82      -0.087100
     26 C26          8.1850    -0.8090    -0.6960 c3         1 S82      -0.087100
     27 HN3         -1.8970     0.4560     0.7360 hn         1 S82       0.313500
     28 H4          -4.0840     1.0290    -1.1040 h1         1 S82       0.084700
     29 H5          -3.5430    -1.3400     0.8540 hc         1 S82       0.083700
     30 H6          -4.1570    -1.2510    -2.1940 hc         1 S82       0.084200
     31 H6A         -2.5650    -1.6830    -1.4060 hc         1 S82       0.084200
     32 H8          -5.4040    -1.9870     2.1660 ha         1 S82       0.111000
     33 H9          -7.8460    -2.1040     2.5810 ha         1 S82       0.112500
     34 H10         -9.4480    -1.1650     0.9180 ha         1 S82       0.113000
     35 H11         -8.5910    -0.1050    -1.1690 ha         1 S82       0.112500
     36 H12         -6.1580     0.0190    -1.5980 ha         1 S82       0.111000
     37 H14          0.6400     2.9440    -1.9440 h1         1 S82       0.060950
     38 H14A         1.1880     3.5160    -0.3640 h1         1 S82       0.060950
     39 H15          2.0500     0.9180    -1.7680 hc         1 S82       0.065950
     40 H15A         3.0450     2.3570    -1.5560 hc         1 S82       0.065950
     41 H16          3.0000     2.0940     0.9140 hc         1 S82       0.081700
     42 H17          1.3090    -0.4420     0.4740 hc         1 S82       0.065950
     43 H17A         1.8670     0.1830     2.0240 hc         1 S82       0.065950
     44 H18          0.5180     2.2560     1.7190 h1         1 S82       0.060950
     45 H18A        -0.5050     0.8260     1.6030 h1         1 S82       0.060950
     46 H24          7.6250     0.0380     1.1850 hc         1 S82       0.070700
     47 H25          8.5430    -2.1890     1.7120 hc         1 S82       0.043533
     48 H25A         6.8830    -2.0430     2.3250 hc         1 S82       0.043533
     49 H25B         7.2060    -2.9790     0.8490 hc         1 S82       0.043533
     50 H26          8.0600     0.1230    -1.2610 hc         1 S82       0.043533
     51 H26A         9.2430    -0.9000    -0.4210 hc         1 S82       0.043533
     52 H26B         7.9290    -1.6470    -1.3560 hc         1 S82       0.043533
@<TRIPOS>BOND
     1     1     2 1   
     2     1    14 1   
     3     1    18 1   
     4     2     3 1   
     5     2    13 2   
     6     3     4 1   
     7     3    27 1   
     8     4     5 1   
     9     4     6 1   
    10     4    28 1   
    11     5     6 1   
    12     5     7 1   
    13     5    29 1   
    14     6    30 1   
    15     6    31 1   
    16     7     8 ar  
    17     7    12 ar  
    18     8     9 ar  
    19     8    32 1   
    20     9    10 ar  
    21     9    33 1   
    22    10    11 ar  
    23    10    34 1   
    24    11    12 ar  
    25    11    35 1   
    26    12    36 1   
    27    14    15 1   
    28    14    37 1   
    29    14    38 1   
    30    15    16 1   
    31    15    39 1   
    32    15    40 1   
    33    16    17 1   
    34    16    19 1   
    35    16    41 1   
    36    17    18 1   
    37    17    42 1   
    38    17    43 1   
    39    18    44 1   
    40    18    45 1   
    41    19    20 2   
    42    19    23 1   
    43    20    21 1   
    44    21    22 2   
    45    21    24 1   
    46    22    23 1   
    47    24    25 1   
    48    24    26 1   
    49    24    46 1   
    50    25    47 1   
    51    25    48 1   
    52    25    49 1   
    53    26    50 1   
    54    26    51 1   
    55    26    52 1   
@<TRIPOS>SUBSTRUCTURE
     1 S82         1 TEMP              0 ****  ****    0 ROOT
