@<TRIPOS>MOLECULE
S84
   51    52     1     0     0
SMALL
No Charge or Current Charge


@<TRIPOS>ATOM
      1 F20         -3.4890    -3.0100     0.6430 f          1 S84      -0.116000
      2 C17         -2.2530    -2.9500     0.0950 c3         1 S84       0.352300
      3 F18         -1.5140    -3.9020     0.7100 f          1 S84      -0.116000
      4 F19         -2.3770    -3.3220    -1.1990 f          1 S84      -0.116000
      5 C13         -1.6310    -1.5520     0.2160 ca         1 S84      -0.147300
      6 C14         -2.4430    -0.3990     0.1490 ca         1 S84      -0.152000
      7 C15         -1.8920     0.8950     0.2480 ca         1 S84       0.342000
      8 N22         -2.7220     2.0460     0.1830 nh         1 S84      -0.835400
      9 C21         -2.3420     3.3100     0.8570 c3         1 S84       0.218100
     10 C23         -3.9460     2.0790    -0.6650 c3         1 S84       0.227800
     11 C24         -5.2810     1.9150     0.1180 c3         1 S84       0.126800
     12 N25         -6.4660     1.9410    -0.7760 n7         1 S84      -0.858400
     13 C26         -7.7630     1.7330    -0.1020 c3         1 S84       0.145100
     14 C12         -0.2380    -1.3930     0.3720 ca         1 S84      -0.122000
     15 C11          0.3290    -0.1110     0.4760 ca         1 S84      -0.038300
     16 C16         -0.4990     1.0230     0.4150 ca         1 S84      -0.168000
     17 C09          1.8350     0.0490     0.6390 c3         1 S84      -0.030100
     18 C08          2.5540     0.1770    -0.7210 c3         1 S84      -0.124700
     19 C06          4.0620     0.3090    -0.5720 ca         1 S84       0.396300
     20 N01          4.5740     1.5580    -0.6510 nb         1 S84      -0.756000
     21 C02          5.8860     1.6770    -0.5160 ca         1 S84       0.598900
     22 N02          6.2650     2.9530    -0.6050 nv         1 S84      -1.054900
     23 C03          6.7720     0.6220    -0.2920 ca         1 S84      -0.231000
     24 C04          6.2530    -0.6790    -0.2080 ca         1 S84       0.001700
     25 C07          7.1540    -1.8770     0.0370 c3         1 S84      -0.053800
     26 C05          4.8630    -0.8280    -0.3510 ca         1 S84      -0.213000
     27 H14         -3.5150    -0.5130     0.0260 ha         1 S84       0.134000
     28 H12          0.4110    -2.2660     0.4090 ha         1 S84       0.126000
     29 H16         -0.0490     2.0080     0.4800 ha         1 S84       0.119000
     30 H211        -1.6380     3.8810     0.2380 h1         1 S84       0.036700
     31 H212        -3.2250     3.9360     1.0430 h1         1 S84       0.036700
     32 H213        -1.8720     3.1030     1.8280 h1         1 S84       0.036700
     33 H231        -3.9800     3.0300    -1.2140 h1         1 S84       0.056200
     34 H232        -3.8900     1.2930    -1.4310 h1         1 S84       0.056200
     35 H241        -5.2470     0.9650     0.6680 h1         1 S84       0.037700
     36 H242        -5.3520     2.7200     0.8620 h1         1 S84       0.037700
     37 H25         -6.4970     2.8550    -1.2490 hn         1 S84       0.403000
     38 H261        -7.7870     0.7610     0.4090 h1         1 S84       0.032033
     39 H262        -7.9480     2.5170     0.6450 h1         1 S84       0.032033
     40 H263        -8.5850     1.7540    -0.8300 h1         1 S84       0.032033
     41 H091         2.0570     0.9350     1.2470 hc         1 S84       0.057700
     42 H092         2.2480    -0.8070     1.1870 hc         1 S84       0.057700
     43 H081         2.3230    -0.7030    -1.3320 hc         1 S84       0.057700
     44 H082         2.1460     1.0390    -1.2630 hc         1 S84       0.057700
     45 H05          4.4050    -1.8110    -0.2900 ha         1 S84       0.123000
     46 H021         5.5090     3.6240    -0.5290 hn         1 S84       0.467000
     47 H022         7.1480     3.2130    -0.1810 hn         1 S84       0.467000
     48 H03          7.8360     0.8080    -0.1870 ha         1 S84       0.119000
     49 H071         7.2380    -2.0900     1.1090 hc         1 S84       0.047033
     50 H072         6.7640    -2.7760    -0.4550 hc         1 S84       0.047033
     51 H073         8.1650    -1.7020    -0.3510 hc         1 S84       0.047033
@<TRIPOS>BOND
     1     1     2 1   
     2     2     3 1   
     3     2     4 1   
     4     2     5 1   
     5     5     6 ar  
     6     5    14 ar  
     7     6     7 ar  
     8     6    27 1   
     9     7     8 1   
    10     7    16 ar  
    11     8     9 1   
    12     8    10 1   
    13     9    30 1   
    14     9    31 1   
    15     9    32 1   
    16    10    11 1   
    17    10    33 1   
    18    10    34 1   
    19    11    12 1   
    20    11    35 1   
    21    11    36 1   
    22    12    13 1   
    23    12    37 1   
    24    13    38 1   
    25    13    39 1   
    26    13    40 1   
    27    14    15 ar  
    28    14    28 1   
    29    15    16 ar  
    30    15    17 1   
    31    16    29 1   
    32    17    18 1   
    33    17    41 1   
    34    17    42 1   
    35    18    19 1   
    36    18    43 1   
    37    18    44 1   
    38    19    20 ar  
    39    19    26 ar  
    40    20    21 ar  
    41    21    22 1   
    42    21    23 ar  
    43    22    46 1   
    44    22    47 1   
    45    23    24 ar  
    46    23    48 1   
    47    24    25 1   
    48    24    26 ar  
    49    25    49 1   
    50    25    50 1   
    51    25    51 1   
    52    26    45 1   
@<TRIPOS>SUBSTRUCTURE
     1 S84         1 TEMP              0 ****  ****    0 ROOT
