@<TRIPOS>MOLECULE
S84
   51    52     1     0     0
SMALL
abcg2


@<TRIPOS>ATOM
      1 F20         -3.6480    -2.8550     0.0230 f          1 S84      -0.116000
      2 C17         -2.3180    -2.8540     0.1590 c3         1 S84       0.352300
      3 F18         -2.0450    -3.5080     1.2970 f          1 S84      -0.116000
      4 F19         -1.8280    -3.6110    -0.8370 f          1 S84      -0.116000
      5 C13         -1.7220    -1.4810     0.1480 ca         1 S84      -0.147300
      6 C14         -2.5040    -0.3840    -0.1660 ca         1 S84      -0.152000
      7 C15         -1.9380     0.9060    -0.1980 ca         1 S84       0.342000
      8 N22         -2.6740     2.0070    -0.5320 nh         1 S84      -0.835400
      9 C21         -2.1030     3.3270    -0.3910 c3         1 S84       0.218100
     10 C23         -4.0540     1.9040    -0.9480 c3         1 S84       0.227800
     11 C24         -5.0460     1.9260     0.2100 c3         1 S84       0.126800
     12 N25         -6.4000     1.8190    -0.2900 n7         1 S84      -0.858400
     13 C26         -7.3890     1.8020     0.7690 c3         1 S84       0.145100
     14 C12         -0.3690    -1.3540     0.4450 ca         1 S84      -0.122000
     15 C11          0.2040    -0.0890     0.4330 ca         1 S84      -0.038300
     16 C16         -0.5740     1.0190     0.1220 ca         1 S84      -0.168000
     17 C09          1.6740     0.0850     0.6880 c3         1 S84      -0.030100
     18 C08          2.4850    -0.0570    -0.6080 c3         1 S84      -0.124700
     19 C06          3.9540     0.1690    -0.3880 ca         1 S84       0.396300
     20 N01          4.3020     1.3890     0.0280 nb         1 S84      -0.756000
     21 C02          5.5860     1.6440     0.2530 ca         1 S84       0.598900
     22 N02          5.9110     2.9160     0.6300 nv         1 S84      -1.054900
     23 C03          6.5870     0.6740     0.0680 ca         1 S84      -0.231000
     24 C04          6.2290    -0.5870    -0.3590 ca         1 S84       0.001700
     25 C07          7.2550    -1.6620    -0.5550 c3         1 S84      -0.053800
     26 C05          4.8730    -0.8440    -0.5930 ca         1 S84      -0.213000
     27 H14         -3.5560    -0.5190    -0.3690 ha         1 S84       0.134000
     28 H12          0.2370    -2.2190     0.6870 ha         1 S84       0.126000
     29 H16         -0.0920     1.9880     0.1210 ha         1 S84       0.119000
     30 H211        -1.2740     3.4980    -1.0840 h1         1 S84       0.036700
     31 H212        -2.8690     4.0680    -0.6070 h1         1 S84       0.036700
     32 H213        -1.7400     3.5120     0.6230 h1         1 S84       0.036700
     33 H231        -4.2630     2.7400    -1.6200 h1         1 S84       0.056200
     34 H232        -4.2010     1.0040    -1.5480 h1         1 S84       0.056200
     35 H241        -4.8570     1.0780     0.8760 h1         1 S84       0.037700
     36 H242        -4.8800     2.8330     0.8150 h1         1 S84       0.037700
     37 H25         -6.5880     2.6060    -0.8990 hn         1 S84       0.403000
     38 H261        -7.2760     0.8960     1.3670 h1         1 S84       0.032033
     39 H262        -7.3260     2.6580     1.4540 h1         1 S84       0.032033
     40 H263        -8.3900     1.7890     0.3390 h1         1 S84       0.032033
     41 H091         1.8670     1.0680     1.1190 hc         1 S84       0.057700
     42 H092         2.0200    -0.6570     1.4120 hc         1 S84       0.057700
     43 H081         2.3200    -1.0480    -1.0350 hc         1 S84       0.057700
     44 H082         2.1140     0.6690    -1.3380 hc         1 S84       0.057700
     45 H05          4.5440    -1.8190    -0.9290 ha         1 S84       0.123000
     46 H021         5.1570     3.4750     0.9950 hn         1 S84       0.467000
     47 H022         6.7870     3.0480     1.1070 hn         1 S84       0.467000
     48 H03          7.6250     0.9230     0.2580 ha         1 S84       0.119000
     49 H071         7.1230    -2.4550     0.1830 hc         1 S84       0.047033
     50 H072         7.1600    -2.1220    -1.5390 hc         1 S84       0.047033
     51 H073         8.2680    -1.2750    -0.4560 hc         1 S84       0.047033
@<TRIPOS>BOND
     1     1     2 1   
     2     2     3 1   
     3     2     4 1   
     4     2     5 1   
     5     5     6 ar  
     6     5    14 ar  
     7     6     7 ar  
     8     6    27 1   
     9     7     8 1   
    10     7    16 ar  
    11     8     9 1   
    12     8    10 1   
    13     9    30 1   
    14     9    31 1   
    15     9    32 1   
    16    10    11 1   
    17    10    33 1   
    18    10    34 1   
    19    11    12 1   
    20    11    35 1   
    21    11    36 1   
    22    12    13 1   
    23    12    37 1   
    24    13    38 1   
    25    13    39 1   
    26    13    40 1   
    27    14    15 ar  
    28    14    28 1   
    29    15    16 ar  
    30    15    17 1   
    31    16    29 1   
    32    17    18 1   
    33    17    41 1   
    34    17    42 1   
    35    18    19 1   
    36    18    43 1   
    37    18    44 1   
    38    19    20 ar  
    39    19    26 ar  
    40    20    21 ar  
    41    21    22 1   
    42    21    23 ar  
    43    22    46 1   
    44    22    47 1   
    45    23    24 ar  
    46    23    48 1   
    47    24    25 1   
    48    24    26 ar  
    49    25    49 1   
    50    25    50 1   
    51    25    51 1   
    52    26    45 1   
@<TRIPOS>SUBSTRUCTURE
     1 S84         1 TEMP              0 ****  ****    0 ROOT
