@<TRIPOS>MOLECULE
S85
   48    49     1     0     0
SMALL
No Charge or Current Charge


@<TRIPOS>ATOM
      1 F17          2.2690    -3.5300    -0.3440 f          1 S85      -0.186000
      2 C13          1.8360    -2.2510    -0.3680 ca         1 S85       0.212000
      3 C14          2.7570    -1.2060    -0.2390 ca         1 S85      -0.241000
      4 C15          2.3220     0.1300    -0.2630 ca         1 S85       0.365000
      5 N18          3.2510     1.1930    -0.1340 nh         1 S85      -0.825400
      6 C19          2.9850     2.5250    -0.7280 c3         1 S85       0.213100
      7 C20          4.4750     1.0630     0.7020 c3         1 S85       0.223800
      8 C21          5.7860     0.8280    -0.1030 c3         1 S85       0.123800
      9 N22          6.9740     0.6970     0.7800 n7         1 S85      -0.858400
     10 C23          8.2440     0.4160     0.0820 c3         1 S85       0.146100
     11 C12          0.4700    -1.9840    -0.5220 ca         1 S85      -0.207000
     12 C11          0.0150    -0.6560    -0.5510 ca         1 S85      -0.011300
     13 C16          0.9460     0.3920    -0.4200 ca         1 S85      -0.208000
     14 C09         -1.4680    -0.3530    -0.7100 c3         1 S85      -0.032100
     15 C08         -2.1780    -0.2000     0.6530 c3         1 S85      -0.122700
     16 C06         -3.6660     0.0770     0.5050 ca         1 S85       0.398300
     17 N01         -4.0590     1.3660     0.6170 nb         1 S85      -0.755000
     18 C02         -5.3520     1.6120     0.4780 ca         1 S85       0.600900
     19 N02         -5.6130     2.9130     0.6160 nv         1 S85      -1.056900
     20 C03         -6.3340     0.6490     0.2350 ca         1 S85      -0.234000
     21 C04         -5.9390    -0.6920     0.1180 ca         1 S85       0.001700
     22 C07         -6.9490    -1.7940    -0.1550 c3         1 S85      -0.053800
     23 C05         -4.5700    -0.9740     0.2550 ca         1 S85      -0.215000
     24 H14          3.8090    -1.4450    -0.1320 ha         1 S85       0.134000
     25 H12         -0.2300    -2.8090    -0.6180 ha         1 S85       0.130000
     26 H16          0.5860     1.4160    -0.4280 ha         1 S85       0.117000
     27 H191         2.3320     3.1150    -0.0710 h1         1 S85       0.036367
     28 H192         3.9200     3.0810    -0.8770 h1         1 S85       0.036367
     29 H193         2.5010     2.4200    -1.7080 h1         1 S85       0.036367
     30 H201         4.5970     1.9730     1.3070 h1         1 S85       0.057200
     31 H202         4.3520     0.2400     1.4190 h1         1 S85       0.057200
     32 H211         5.6650    -0.0810    -0.7070 h1         1 S85       0.037700
     33 H212         5.9250     1.6670    -0.7990 h1         1 S85       0.037700
     34 H22          7.0870     1.5740     1.3060 hn         1 S85       0.403000
     35 H231         8.1790    -0.5220    -0.4860 h1         1 S85       0.031033
     36 H232         8.4930     1.2250    -0.6180 h1         1 S85       0.031033
     37 H233         9.0680     0.3220     0.8010 h1         1 S85       0.031033
     38 H091        -1.6040     0.5680    -1.2910 hc         1 S85       0.059200
     39 H092        -1.9560    -1.1500    -1.2840 hc         1 S85       0.059200
     40 H081        -2.0320    -1.1160     1.2360 hc         1 S85       0.055700
     41 H082        -1.6930     0.6030     1.2210 hc         1 S85       0.055700
     42 H05         -4.2060    -1.9940     0.1700 ha         1 S85       0.122000
     43 H021        -4.8580     3.4530     1.0200 hn         1 S85       0.468000
     44 H022        -6.5540     3.1790     0.8810 hn         1 S85       0.468000
     45 H03         -7.3760     0.9370     0.1350 ha         1 S85       0.118000
     46 H071        -7.0500    -1.9720    -1.2320 hc         1 S85       0.046700
     47 H072        -6.6450    -2.7370     0.3150 hc         1 S85       0.046700
     48 H073        -7.9390    -1.5340     0.2370 hc         1 S85       0.046700
@<TRIPOS>BOND
     1     1     2 1   
     2     2     3 ar  
     3     2    11 ar  
     4     3     4 ar  
     5     3    24 1   
     6     4     5 1   
     7     4    13 ar  
     8     5     6 1   
     9     5     7 1   
    10     6    27 1   
    11     6    28 1   
    12     6    29 1   
    13     7     8 1   
    14     7    30 1   
    15     7    31 1   
    16     8     9 1   
    17     8    32 1   
    18     8    33 1   
    19     9    10 1   
    20     9    34 1   
    21    10    35 1   
    22    10    36 1   
    23    10    37 1   
    24    11    12 ar  
    25    11    25 1   
    26    12    13 ar  
    27    12    14 1   
    28    13    26 1   
    29    14    15 1   
    30    14    38 1   
    31    14    39 1   
    32    15    16 1   
    33    15    40 1   
    34    15    41 1   
    35    16    17 ar  
    36    16    23 ar  
    37    17    18 ar  
    38    18    19 1   
    39    18    20 ar  
    40    19    43 1   
    41    19    44 1   
    42    20    21 ar  
    43    20    45 1   
    44    21    22 1   
    45    21    23 ar  
    46    22    46 1   
    47    22    47 1   
    48    22    48 1   
    49    23    42 1   
@<TRIPOS>SUBSTRUCTURE
     1 S85         1 TEMP              0 ****  ****    0 ROOT
