@<TRIPOS>MOLECULE
S85
   48    49     1     0     0
SMALL
bcc


@<TRIPOS>ATOM
      1 F17          2.3680    -3.4940    -0.3540 f          1 S85      -0.150900
      2 C13          1.9260    -2.2280    -0.2270 ca         1 S85       0.176900
      3 C14          2.8260    -1.2790     0.2040 ca         1 S85      -0.259000
      4 C15          2.3950     0.0530     0.3580 ca         1 S85       0.226600
      5 N18          3.2300     1.0310     0.8230 nh         1 S85      -0.687000
      6 C19          2.7910     2.4090     0.8220 c3         1 S85       0.213100
      7 C20          4.6360     0.7840     1.0490 c3         1 S85       0.223800
      8 C21          5.4840     0.9140    -0.2130 c3         1 S85       0.123800
      9 N22          6.8750     0.6500     0.0840 n7         1 S85      -0.803200
     10 C23          7.7250     0.7220    -1.0860 c3         1 S85       0.146100
     11 C12          0.6090    -1.9580    -0.5380 ca         1 S85      -0.225000
     12 C11          0.1800    -0.6400    -0.4100 ca         1 S85      -0.011300
     13 C16          1.0570     0.3430     0.0270 ca         1 S85      -0.226000
     14 C09         -1.2520    -0.2870    -0.6970 c3         1 S85      -0.032100
     15 C08         -2.1180    -0.3660     0.5670 c3         1 S85      -0.122700
     16 C06         -3.5580    -0.0360     0.2910 ca         1 S85       0.463600
     17 N01         -3.8000     1.1890    -0.1800 nb         1 S85      -0.755000
     18 C02         -5.0540     1.5300    -0.4570 ca         1 S85       0.666200
     19 N02         -5.2580     2.7690    -0.9910 nv         1 S85      -0.946500
     20 C03         -6.1330     0.6510    -0.2550 ca         1 S85      -0.317300
     21 C04         -5.8850    -0.6140     0.2360 ca         1 S85       0.001700
     22 C07         -6.9970    -1.5930     0.4570 c3         1 S85      -0.053800
     23 C05         -4.5580    -0.9660     0.5100 ca         1 S85      -0.298300
     24 H14          3.8410    -1.5880     0.4090 ha         1 S85       0.152000
     25 H12         -0.0570    -2.7420    -0.8760 ha         1 S85       0.148000
     26 H16          0.6810     1.3540     0.1120 ha         1 S85       0.135000
     27 H191         1.9310     2.5620     1.4790 h1         1 S85       0.036367
     28 H192         3.5990     3.0370     1.1880 h1         1 S85       0.036367
     29 H193         2.5190     2.7670    -0.1760 h1         1 S85       0.036367
     30 H201         4.9860     1.4980     1.7990 h1         1 S85       0.057200
     31 H202         4.7840    -0.2010     1.4940 h1         1 S85       0.057200
     32 H211         5.1430     0.1890    -0.9580 h1         1 S85       0.037700
     33 H212         5.3190     1.9100    -0.6570 h1         1 S85       0.037700
     34 H22          7.1990     1.3260     0.7650 hn         1 S85       0.347800
     35 H231         7.4780    -0.0870    -1.7770 h1         1 S85       0.031033
     36 H232         7.6440     1.6650    -1.6440 h1         1 S85       0.031033
     37 H233         8.7670     0.5960    -0.7930 h1         1 S85       0.031033
     38 H091        -1.3150     0.7230    -1.1070 hc         1 S85       0.059200
     39 H092        -1.6580    -0.9640    -1.4540 hc         1 S85       0.059200
     40 H081        -2.0460    -1.3670     0.9980 hc         1 S85       0.055700
     41 H082        -1.7220     0.3280     1.3130 hc         1 S85       0.055700
     42 H05         -4.3140    -1.9480     0.8950 ha         1 S85       0.140000
     43 H021        -4.5210     3.4410    -0.8510 hn         1 S85       0.412800
     44 H022        -6.1850     3.1560    -0.9310 hn         1 S85       0.412800
     45 H03         -7.1430     0.9710    -0.4820 ha         1 S85       0.136000
     46 H071        -6.9480    -2.4010    -0.2750 hc         1 S85       0.046700
     47 H072        -6.9260    -2.0530     1.4440 hc         1 S85       0.046700
     48 H073        -7.9740    -1.1220     0.3690 hc         1 S85       0.046700
@<TRIPOS>BOND
     1     1     2 1   
     2     2     3 ar  
     3     2    11 ar  
     4     3     4 ar  
     5     3    24 1   
     6     4     5 1   
     7     4    13 ar  
     8     5     6 1   
     9     5     7 1   
    10     6    27 1   
    11     6    28 1   
    12     6    29 1   
    13     7     8 1   
    14     7    30 1   
    15     7    31 1   
    16     8     9 1   
    17     8    32 1   
    18     8    33 1   
    19     9    10 1   
    20     9    34 1   
    21    10    35 1   
    22    10    36 1   
    23    10    37 1   
    24    11    12 ar  
    25    11    25 1   
    26    12    13 ar  
    27    12    14 1   
    28    13    26 1   
    29    14    15 1   
    30    14    38 1   
    31    14    39 1   
    32    15    16 1   
    33    15    40 1   
    34    15    41 1   
    35    16    17 ar  
    36    16    23 ar  
    37    17    18 ar  
    38    18    19 1   
    39    18    20 ar  
    40    19    43 1   
    41    19    44 1   
    42    20    21 ar  
    43    20    45 1   
    44    21    22 1   
    45    21    23 ar  
    46    22    46 1   
    47    22    47 1   
    48    22    48 1   
    49    23    42 1   
@<TRIPOS>SUBSTRUCTURE
     1 S85         1 TEMP              0 ****  ****    0 ROOT
