@<TRIPOS>MOLECULE
S86
   55    58     1     0     0
SMALL
abcg2


@<TRIPOS>ATOM
      1 C10        -18.9280    22.4360     6.1110 ca         1 S86      -0.123000
      2 C11        -18.5450    23.4830     5.2870 ca         1 S86      -0.086000
      3 C12        -18.3510    23.3020     3.9210 ca         1 S86      -0.129000
      4 C13        -18.5530    22.0310     3.3760 ca         1 S86      -0.026000
      5 C15        -18.1000    22.5480     0.9760 c          1 S86       0.582100
      6 C17        -18.0150    21.8070    -0.3790 c6         1 S86       0.106000
      7 C18        -17.1160    22.5490    -1.3720 c6         1 S86      -0.075900
      8 C19        -17.1220    21.8780    -2.7460 c6         1 S86      -0.117900
      9 C20        -18.5300    21.7510    -3.2760 c6         1 S86       0.170000
     10 C04        -19.7600    17.7950     7.0810 cc         1 S86      -0.274900
     11 C05        -19.2800    18.6640     6.1380 cd         1 S86      -0.064000
     12 C06        -19.5520    20.0320     6.4230 cd         1 S86      -0.065000
     13 C07        -20.2530    20.1670     7.6010 cc         1 S86      -0.223000
     14 C09        -19.1370    21.1600     5.5720 ca         1 S86       0.016000
     15 C23        -19.4800    21.0620    -2.3270 c6         1 S86      -0.117900
     16 C24        -19.4450    21.7070    -0.9400 c6         1 S86      -0.075900
     17 C26        -16.3140    20.0730     0.0700 ca         1 S86       0.117100
     18 C27        -15.4080    20.8440     0.7950 ca         1 S86      -0.143500
     19 C28        -14.1300    20.3570     1.0500 ca         1 S86      -0.072000
     20 C29        -13.7700    19.1010     0.5860 ca         1 S86       0.101000
     21 C31        -14.6660    18.3210    -0.1320 ca         1 S86      -0.072000
     22 C32        -15.9370    18.8130    -0.3910 ca         1 S86      -0.143500
     23 C33        -18.9460    20.9760     4.2030 ca         1 S86      -0.149000
     24 F21        -18.5140    21.0860    -4.4920 f          1 S86      -0.124000
     25 F22        -19.0250    23.0150    -3.5770 f          1 S86      -0.124000
     26 N01        -20.3280    15.6360     8.0170 nv         1 S86      -1.089200
     27 N03        -18.8000    15.7930     6.2280 n2         1 S86      -0.824100
     28 N14        -18.3630    21.7280     2.0190 ns         1 S86      -0.138000
     29 O16        -17.9830    23.7640     1.0470 o          1 S86      -0.577100
     30 O25        -17.6140    20.4300    -0.1930 os         1 S86      -0.378100
     31 S08        -20.5590    18.6630     8.3520 ss         1 S86       0.212000
     32 CL30       -12.1590    18.4910     0.9080 cl         1 S86      -0.205000
     33 H101       -19.0480    22.6010     7.1730 ha         1 S86       0.116000
     34 H111       -18.3800    24.4650     5.7160 ha         1 S86       0.117000
     35 H121       -18.0480    24.1220     3.2940 ha         1 S86       0.148000
     36 H182       -16.0980    22.6210    -1.0000 hc         1 S86       0.075450
     37 H181       -17.4910    23.5680    -1.4500 hc         1 S86       0.075450
     38 H192       -16.7040    20.8720    -2.6880 hc         1 S86       0.075950
     39 H191       -16.5240    22.4500    -3.4560 hc         1 S86       0.075950
     40 H051       -18.7310    18.3230     5.2730 ha         1 S86       0.156000
     41 H071       -20.6130    21.0750     8.0570 h4         1 S86       0.154000
     42 H231       -20.4880    21.1000    -2.7430 hc         1 S86       0.075950
     43 H232       -19.1810    20.0160    -2.2580 hc         1 S86       0.075950
     44 H242       -19.8640    22.7140    -0.9750 hc         1 S86       0.075450
     45 H241       -20.0560    21.1190    -0.2550 hc         1 S86       0.075450
     46 H271       -15.6700    21.8200     1.1730 ha         1 S86       0.131000
     47 H281       -13.4280    20.9570     1.6120 ha         1 S86       0.135000
     48 H311       -14.3750    17.3420    -0.4920 ha         1 S86       0.135000
     49 H321       -16.6490    18.2240    -0.9530 ha         1 S86       0.131000
     50 H331       -19.1140    20.0030     3.7600 ha         1 S86       0.117000
     51 H012       -21.1470    16.0520     8.4310 hn         1 S86       0.468000
     52 H031       -18.8120    14.7750     6.3100 hn         1 S86       0.371400
     53 H141       -18.4120    20.7440     1.7870 hn         1 S86       0.169000
     54 H011       -20.3680    14.6330     7.9250 hn         1 S86       0.468000
     55 C02        -19.6120    16.3250     7.0740 ce         1 S86       0.692800
@<TRIPOS>BOND
     1     1     2 ar  
     2     1    14 ar  
     3     1    33 1   
     4     2     3 ar  
     5     2    34 1   
     6     3     4 ar  
     7     3    35 1   
     8     4    23 ar  
     9     4    28 1   
    10     5     6 1   
    11     5    28 1   
    12     5    29 2   
    13     6     7 1   
    14     6    16 1   
    15     6    30 1   
    16     7     8 1   
    17     7    36 1   
    18     7    37 1   
    19     8     9 1   
    20     8    38 1   
    21     8    39 1   
    22     9    15 1   
    23     9    24 1   
    24     9    25 1   
    25    10    11 2   
    26    10    31 1   
    27    10    55 1   
    28    11    12 1   
    29    11    40 1   
    30    12    13 2   
    31    12    14 1   
    32    13    31 1   
    33    13    41 1   
    34    14    23 ar  
    35    15    16 1   
    36    15    42 1   
    37    15    43 1   
    38    16    44 1   
    39    16    45 1   
    40    17    18 ar  
    41    17    22 ar  
    42    17    30 1   
    43    18    19 ar  
    44    18    46 1   
    45    19    20 ar  
    46    19    47 1   
    47    20    21 ar  
    48    20    32 1   
    49    21    22 ar  
    50    21    48 1   
    51    22    49 1   
    52    23    50 1   
    53    26    51 1   
    54    26    54 1   
    55    26    55 1   
    56    27    52 1   
    57    27    55 2   
    58    28    53 1   
@<TRIPOS>SUBSTRUCTURE
     1 S86         1 TEMP              0 ****  ****    0 ROOT
