@<TRIPOS>MOLECULE
S86
   55    58     1     0     0
SMALL
No Charge or Current Charge


@<TRIPOS>ATOM
      1 C10        -19.8470    22.6190     5.8600 ca         1 S86      -0.123000
      2 C11        -19.7340    23.6740     4.9430 ca         1 S86      -0.086000
      3 C12        -19.3500    23.4190     3.6190 ca         1 S86      -0.129000
      4 C13        -19.0680    22.1070     3.2020 ca         1 S86      -0.026000
      5 C15        -18.0990    20.8420     1.1800 c          1 S86       0.582100
      6 C17        -17.8770    21.0510    -0.3750 c6         1 S86       0.106000
      7 C18        -17.3900    22.5110    -0.7120 c6         1 S86      -0.075900
      8 C19        -17.2580    22.7580    -2.2430 c6         1 S86      -0.117900
      9 C20        -18.6060    22.5090    -2.9580 c6         1 S86       0.170000
     10 C04        -19.6300    17.9290     7.2190 cc         1 S86      -0.274900
     11 C05        -19.4430    18.7930     6.1640 cd         1 S86      -0.064000
     12 C06        -19.7140    20.1700     6.4450 cd         1 S86      -0.065000
     13 C07        -20.1100    20.3390     7.7540 cc         1 S86      -0.223000
     14 C09        -19.5830    21.2860     5.4700 ca         1 S86       0.016000
     15 C23        -19.2230    21.1370    -2.6060 c6         1 S86      -0.117900
     16 C24        -19.2780    20.9170    -1.0650 c6         1 S86      -0.075900
     17 C26        -15.7570    19.7420    -0.4830 ca         1 S86       0.117100
     18 C27        -14.6760    20.6360    -0.6190 ca         1 S86      -0.143500
     19 C28        -13.4030    20.2830    -0.1330 ca         1 S86      -0.072000
     20 C29        -13.2030    19.0310     0.4700 ca         1 S86       0.101000
     21 C31        -14.2690    18.1220     0.5750 ca         1 S86      -0.072000
     22 C32        -15.5400    18.4750     0.0880 ca         1 S86      -0.143500
     23 C33        -19.1970    21.0480     4.1290 ca         1 S86      -0.149000
     24 F21        -18.4200    22.5940    -4.3480 f          1 S86      -0.124000
     25 F22        -19.5120    23.5300    -2.6180 f          1 S86      -0.124000
     26 N01        -19.6840    15.7890     8.3710 nv         1 S86      -1.089200
     27 N03        -19.0230    15.8540     6.2350 n2         1 S86      -0.824100
     28 N14        -18.6920    21.9140     1.8440 ns         1 S86      -0.138000
     29 O16        -17.7050    19.8420     1.7730 o          1 S86      -0.577100
     30 O25        -17.0130    20.0300    -0.9780 os         1 S86      -0.378100
     31 S08        -20.1560    18.8220     8.6380 ss         1 S86       0.212000
     32 Cl30       -11.6110    18.5910     1.0750 cl         1 S86      -0.205000
     33 H101       -20.1450    22.8550     6.8760 ha         1 S86       0.116000
     34 H111       -19.9450    24.6930     5.2600 ha         1 S86       0.117000
     35 H121       -19.2660    24.2480     2.9180 ha         1 S86       0.148000
     36 H182       -16.4450    22.7300    -0.2000 hc         1 S86       0.075450
     37 H181       -18.0970    23.2540    -0.3170 hc         1 S86       0.075450
     38 H192       -16.4940    22.0960    -2.6720 hc         1 S86       0.075950
     39 H191       -16.9190    23.7860    -2.4320 hc         1 S86       0.075950
     40 H051       -19.1100    18.4310     5.1970 ha         1 S86       0.156000
     41 H071       -20.3840    21.2400     8.2840 h4         1 S86       0.154000
     42 H231       -20.2320    21.0610    -3.0330 hc         1 S86       0.075950
     43 H232       -18.6310    20.3390    -3.0730 hc         1 S86       0.075950
     44 H242       -19.9930    21.6280    -0.6250 hc         1 S86       0.075450
     45 H241       -19.6900    19.9190    -0.8600 hc         1 S86       0.075450
     46 H271       -14.7990    21.5890    -1.1200 ha         1 S86       0.131000
     47 H281       -12.5700    20.9750    -0.2340 ha         1 S86       0.135000
     48 H311       -14.1090    17.1470     1.0300 ha         1 S86       0.135000
     49 H321       -16.3650    17.7710     0.1650 ha         1 S86       0.131000
     50 H331       -19.0140    20.0340     3.8020 ha         1 S86       0.117000
     51 H012       -20.2080    16.2870     9.0790 hn         1 S86       0.468000
     52 H031       -18.7170    14.9280     6.5500 hn         1 S86       0.371400
     53 H141       -18.9140    22.7000     1.2480 hn         1 S86       0.169000
     54 H011       -19.9450    14.8190     8.2420 hn         1 S86       0.468000
     55 C02        -19.4340    16.4880     7.2500 ce         1 S86       0.692800
@<TRIPOS>BOND
     1     1     2 ar  
     2     1    14 ar  
     3     1    33 1   
     4     2     3 ar  
     5     2    34 1   
     6     3     4 ar  
     7     3    35 1   
     8     4    23 ar  
     9     4    28 1   
    10     5     6 1   
    11     5    28 1   
    12     5    29 2   
    13     6     7 1   
    14     6    16 1   
    15     6    30 1   
    16     7     8 1   
    17     7    36 1   
    18     7    37 1   
    19     8     9 1   
    20     8    38 1   
    21     8    39 1   
    22     9    15 1   
    23     9    24 1   
    24     9    25 1   
    25    10    11 2   
    26    10    31 1   
    27    10    55 1   
    28    11    12 1   
    29    11    40 1   
    30    12    13 2   
    31    12    14 1   
    32    13    31 1   
    33    13    41 1   
    34    14    23 ar  
    35    15    16 1   
    36    15    42 1   
    37    15    43 1   
    38    16    44 1   
    39    16    45 1   
    40    17    18 ar  
    41    17    22 ar  
    42    17    30 1   
    43    18    19 ar  
    44    18    46 1   
    45    19    20 ar  
    46    19    47 1   
    47    20    21 ar  
    48    20    32 1   
    49    21    22 ar  
    50    21    48 1   
    51    22    49 1   
    52    23    50 1   
    53    26    51 1   
    54    26    54 1   
    55    26    55 1   
    56    27    52 1   
    57    27    55 2   
    58    28    53 1   
@<TRIPOS>SUBSTRUCTURE
     1 S86         1 TEMP              0 ****  ****    0 ROOT
