@<TRIPOS>MOLECULE
S87
   41    44     1     0     0
SMALL
No Charge or Current Charge


@<TRIPOS>ATOM
      1 C10        124.6840    96.0670    94.2080 c3         1 S87       0.056900
      2 C11        123.2580   100.7470    94.6020 ca         1 S87      -0.059000
      3 C12        122.3720    98.0410    94.6520 ca         1 S87      -0.120000
      4 C13        131.2270   101.4290    94.0260 cc         1 S87       0.404800
      5 C14        130.8900   100.8670    91.9030 cc         1 S87      -0.237000
      6 C15        121.8960   100.4430    94.8160 ca         1 S87      -0.129000
      7 C16        121.4560    99.0980    94.8400 ca         1 S87      -0.098000
      8 C17        132.2180   100.7750    92.2270 cd         1 S87       0.232900
      9 C18        130.9720   101.8710    95.4400 c3         1 S87      -0.122400
     10 C01        128.0060   100.3520    93.8490 c6         1 S87      -0.183700
     11 C02        128.1710    98.9950    93.0940 c6         1 S87      -0.064400
     12 C03        127.3880    97.8470    93.7760 c6         1 S87      -0.030200
     13 C04        125.9820    98.2990    94.0580 cc         1 S87       0.007700
     14 C05        125.5690    99.6140    94.1780 cd         1 S87      -0.254400
     15 C06        126.5190   100.7500    94.0580 c          1 S87       0.619300
     16 C07        128.8070   101.5240    93.2020 c3         1 S87       0.080600
     17 C08        124.1420    99.6740    94.4170 ca         1 S87      -0.038800
     18 C09        123.7210    98.3680    94.4410 ca         1 S87      -0.063200
     19 N01        124.8140    97.5330    94.2310 na         1 S87      -0.069700
     20 N02        130.2540   101.2820    93.0540 na         1 S87      -0.168500
     21 N03        132.4220   101.1260    93.5450 nd         1 S87      -0.677000
     22 O01        126.1660   101.9210    94.1260 o          1 S87      -0.545100
     23 H1         124.1810    95.7280    95.1220 h1         1 S87       0.053700
     24 H2         124.0940    95.7650    93.3340 h1         1 S87       0.053700
     25 H3         125.6750    95.6010    94.1540 h1         1 S87       0.053700
     26 H4         123.6020   101.7770    94.5820 ha         1 S87       0.135000
     27 H5         122.0350    97.0070    94.6690 ha         1 S87       0.114000
     28 H7         121.1810   101.2490    94.9630 ha         1 S87       0.114000
     29 H8         120.4030    98.8770    95.0060 ha         1 S87       0.112000
     30 H9         133.0380   100.4770    91.5840 h4         1 S87       0.036100
     31 H10        131.9130   102.0230    95.9810 hc         1 S87       0.054033
     32 H11        130.4180   102.8160    95.4600 hc         1 S87       0.054033
     33 H12        130.3890   101.1190    95.9830 hc         1 S87       0.054033
     34 H13        127.8160    99.1090    92.0590 hc         1 S87       0.057700
     35 H14        127.3990    96.9580    93.1300 hc         1 S87       0.062200
     36 H15        128.6720   102.4310    93.8050 h1         1 S87       0.075200
     37 H16        128.3870   101.7310    92.2090 h1         1 S87       0.075200
     38 H18        128.4000   100.1900    94.8600 hc         1 S87       0.079700
     39 H19        129.2310    98.7150    93.0270 hc         1 S87       0.057700
     40 H20        127.8880    97.5610    94.7120 hc         1 S87       0.062200
     41 H6         130.3740   100.6710    90.9710 h4         1 S87       0.154000
@<TRIPOS>BOND
     1     1    19 1   
     2     1    23 1   
     3     1    24 1   
     4     1    25 1   
     5     2     6 ar  
     6     2    17 ar  
     7     2    26 1   
     8     3     7 ar  
     9     3    18 ar  
    10     3    27 1   
    11     4     9 1   
    12     4    20 1   
    13     4    21 2   
    14     5     8 2   
    15     5    20 1   
    16     5    41 1   
    17     6     7 ar  
    18     6    28 1   
    19     7    29 1   
    20     8    21 1   
    21     8    30 1   
    22     9    31 1   
    23     9    32 1   
    24     9    33 1   
    25    10    11 1   
    26    10    15 1   
    27    10    16 1   
    28    10    38 1   
    29    11    12 1   
    30    11    34 1   
    31    11    39 1   
    32    12    13 1   
    33    12    35 1   
    34    12    40 1   
    35    13    14 2   
    36    13    19 1   
    37    14    15 1   
    38    14    17 1   
    39    15    22 2   
    40    16    20 1   
    41    16    36 1   
    42    16    37 1   
    43    17    18 ar  
    44    18    19 1   
@<TRIPOS>SUBSTRUCTURE
     1 S87         1 TEMP              0 ****  ****    0 ROOT
