@<TRIPOS>MOLECULE
S87
   41    44     1     0     0
SMALL
abcg2


@<TRIPOS>ATOM
      1 C10        124.8290    96.1620    94.1610 c3         1 S87       0.056900
      2 C11        123.2720   100.7610    94.6530 ca         1 S87      -0.059000
      3 C12        122.4820    98.0400    94.7600 ca         1 S87      -0.120000
      4 C13        131.1110   101.3600    94.1050 cc         1 S87       0.404800
      5 C14        130.9290   100.6980    92.0200 cc         1 S87      -0.237000
      6 C15        121.9660   100.4030    94.9450 ca         1 S87      -0.129000
      7 C16        121.5750    99.0600    94.9970 ca         1 S87      -0.098000
      8 C17        132.2150   100.5700    92.4530 cd         1 S87       0.232900
      9 C18        130.7290   101.9040    95.4350 c3         1 S87      -0.122400
     10 C01        128.0000   100.3580    93.7520 c6         1 S87      -0.183700
     11 C02        128.0970    99.0510    92.9650 c6         1 S87      -0.064400
     12 C03        127.3230    97.9150    93.6280 c6         1 S87      -0.030200
     13 C04        125.9570    98.3870    93.9620 cc         1 S87       0.007700
     14 C05        125.6010    99.7180    94.0860 cd         1 S87      -0.254400
     15 C06        126.5490   100.7910    93.9480 c          1 S87       0.619300
     16 C07        128.8130   101.4880    93.1200 c3         1 S87       0.080600
     17 C08        124.2030    99.7520    94.4090 ca         1 S87      -0.038800
     18 C09        123.7900    98.4080    94.4700 ca         1 S87      -0.063200
     19 N01        124.8810    97.6050    94.1960 na         1 S87      -0.069700
     20 N02        130.2320   101.2060    93.0840 na         1 S87      -0.168500
     21 N03        132.3170   100.9850    93.7510 nd         1 S87      -0.677000
     22 O01        126.2360   101.9690    94.0260 o          1 S87      -0.545100
     23 H1         124.4660    95.7720    95.1110 h1         1 S87       0.053700
     24 H2         124.1700    95.8200    93.3630 h1         1 S87       0.053700
     25 H3         125.8220    95.7590    93.9860 h1         1 S87       0.053700
     26 H4         123.5620   101.8020    94.6120 ha         1 S87       0.135000
     27 H5         122.1770    97.0020    94.8030 ha         1 S87       0.114000
     28 H7         121.2320   101.1750    95.1350 ha         1 S87       0.114000
     29 H8         120.5470    98.8120    95.2270 ha         1 S87       0.112000
     30 H9         133.0680   100.2090    91.8990 h4         1 S87       0.036100
     31 H10        131.6170   101.9850    96.0580 hc         1 S87       0.054033
     32 H11        130.2800   102.8960    95.3560 hc         1 S87       0.054033
     33 H12        130.0130   101.2630    95.9530 hc         1 S87       0.054033
     34 H13        127.7130    99.2100    91.9520 hc         1 S87       0.057700
     35 H14        127.2950    97.0480    92.9660 hc         1 S87       0.062200
     36 H15        128.6590   102.4170    93.6670 h1         1 S87       0.075200
     37 H16        128.4820   101.6630    92.0960 h1         1 S87       0.075200
     38 H18        128.3870   100.1710    94.7640 hc         1 S87       0.079700
     39 H19        129.1410    98.7540    92.8630 hc         1 S87       0.057700
     40 H20        127.8340    97.5940    94.5430 hc         1 S87       0.062200
     41 H6         130.4580   100.4870    91.0740 h4         1 S87       0.154000
@<TRIPOS>BOND
     1     1    19 1   
     2     1    23 1   
     3     1    24 1   
     4     1    25 1   
     5     2     6 ar  
     6     2    17 ar  
     7     2    26 1   
     8     3     7 ar  
     9     3    18 ar  
    10     3    27 1   
    11     4     9 1   
    12     4    20 1   
    13     4    21 2   
    14     5     8 2   
    15     5    20 1   
    16     5    41 1   
    17     6     7 ar  
    18     6    28 1   
    19     7    29 1   
    20     8    21 1   
    21     8    30 1   
    22     9    31 1   
    23     9    32 1   
    24     9    33 1   
    25    10    11 1   
    26    10    15 1   
    27    10    16 1   
    28    10    38 1   
    29    11    12 1   
    30    11    34 1   
    31    11    39 1   
    32    12    13 1   
    33    12    35 1   
    34    12    40 1   
    35    13    14 2   
    36    13    19 1   
    37    14    15 1   
    38    14    17 1   
    39    15    22 2   
    40    16    20 1   
    41    16    36 1   
    42    16    37 1   
    43    17    18 ar  
    44    18    19 1   
@<TRIPOS>SUBSTRUCTURE
     1 S87         1 TEMP              0 ****  ****    0 ROOT
