@<TRIPOS>MOLECULE
S88
   56    59     1     0     0
SMALL
No Charge or Current Charge


@<TRIPOS>ATOM
      1 F29         -7.3730    -0.4620     2.1970 f          1 S88      -0.180000
      2 C27         -7.0560    -0.2770     0.8970 ca         1 S88       0.169000
      3 C26         -7.7300    -1.0060    -0.0950 ca         1 S88      -0.149000
      4 C25         -7.3980    -0.8160    -1.4480 ca         1 S88      -0.084000
      5 C24         -6.3940     0.1040    -1.8020 ca         1 S88      -0.124000
      6 C28         -6.0540     0.6410     0.5460 ca         1 S88      -0.136000
      7 C23         -5.7170     0.8390    -0.8070 ca         1 S88      -0.083300
      8 C22         -4.6260     1.8290    -1.1900 c3         1 S88       0.143300
      9 N21         -3.3040     1.2010    -1.1570 ns         1 S88      -0.507900
     10 C19         -2.4530     1.2220    -0.0750 c          1 S88       0.602100
     11 O20         -2.7270     1.8140     0.9590 o          1 S88      -0.597100
     12 C16         -1.1290     0.4510    -0.2500 c6         1 S88      -0.142700
     13 C15         -0.9940    -0.7670     0.6940 c6         1 S88      -0.067900
     14 C14          0.3430    -1.5130     0.4590 c6         1 S88       0.169300
     15 N13          1.5280    -0.6020     0.5640 n3         1 S88      -0.726600
     16 C18          1.4130     0.5210    -0.4210 c6         1 S88       0.169300
     17 C17          0.1250     1.3550    -0.2140 c6         1 S88      -0.067900
     18 C11          2.8450    -1.3070     0.4560 c3         1 S88       0.234800
     19 C12          3.0140    -2.4910     1.4370 c3         1 S88      -0.093100
     20 C10          4.0450    -0.3530     0.6540 ca         1 S88      -0.080300
     21 C2           5.2200    -0.3880    -0.1560 ca         1 S88      -0.025000
     22 C1           5.3990    -1.3280    -1.2030 ca         1 S88      -0.107000
     23 C6           6.5680    -1.3240    -1.9820 ca         1 S88      -0.108000
     24 C5           7.5820    -0.3900    -1.7320 ca         1 S88      -0.112000
     25 C4           7.4310     0.5390    -0.6940 ca         1 S88      -0.096000
     26 C3           6.2640     0.5420     0.0950 ca         1 S88      -0.041000
     27 C7           6.1540     1.4760     1.1390 ca         1 S88      -0.100000
     28 C8           5.0140     1.4900     1.9510 ca         1 S88      -0.109000
     29 C9           3.9740     0.5820     1.7120 ca         1 S88      -0.085000
     30 H1          -8.5040    -1.7160     0.1850 ha         1 S88       0.132000
     31 H2          -7.9170    -1.3790    -2.2210 ha         1 S88       0.117000
     32 H3          -6.1410     0.2440    -2.8510 ha         1 S88       0.115000
     33 H4          -5.5390     1.1960     1.3270 ha         1 S88       0.139000
     34 H5          -4.8100     2.2080    -2.2050 h1         1 S88       0.067700
     35 H6          -4.6470     2.6900    -0.5100 h1         1 S88       0.067700
     36 H7          -2.9980     0.6810    -1.9700 hn         1 S88       0.312500
     37 H8          -1.1640     0.0340    -1.2670 hc         1 S88       0.047700
     38 H9          -1.0410    -0.4320     1.7400 hc         1 S88       0.059450
     39 H10         -1.8350    -1.4580     0.5480 hc         1 S88       0.059450
     40 H11          0.3960    -2.3180     1.2040 h1         1 S88       0.034200
     41 H12          0.3200    -1.9900    -0.5320 h1         1 S88       0.034200
     42 H14          2.2690     1.2060    -0.3440 h1         1 S88       0.034200
     43 H15          1.4190     0.1230    -1.4460 h1         1 S88       0.034200
     44 H16          0.0580     2.1320    -0.9870 hc         1 S88       0.059450
     45 H17          0.1830     1.8750     0.7520 hc         1 S88       0.059450
     46 H18          2.8810    -1.7270    -0.5530 h1         1 S88       0.026700
     47 H19          2.8180    -2.1750     2.4680 hc         1 S88       0.042367
     48 H20          2.3420    -3.3200     1.1870 hc         1 S88       0.042367
     49 H21          4.0380    -2.8810     1.3890 hc         1 S88       0.042367
     50 H22          4.6550    -2.0830    -1.4310 ha         1 S88       0.110000
     51 H23          6.6880    -2.0520    -2.7820 ha         1 S88       0.110000
     52 H24          8.4860    -0.3900    -2.3380 ha         1 S88       0.113000
     53 H25          8.2260     1.2560    -0.4990 ha         1 S88       0.112000
     54 H26          6.9560     2.1860     1.3290 ha         1 S88       0.113000
     55 H27          4.9340     2.2080     2.7650 ha         1 S88       0.115000
     56 H28          3.0950     0.6090     2.3520 ha         1 S88       0.134000
@<TRIPOS>BOND
     1     1     2 1   
     2     2     3 ar  
     3     2     6 ar  
     4     3     4 ar  
     5     3    30 1   
     6     4     5 ar  
     7     4    31 1   
     8     5     7 ar  
     9     5    32 1   
    10     6     7 ar  
    11     6    33 1   
    12     7     8 1   
    13     8     9 1   
    14     8    34 1   
    15     8    35 1   
    16     9    10 1   
    17     9    36 1   
    18    10    11 2   
    19    10    12 1   
    20    12    13 1   
    21    12    17 1   
    22    12    37 1   
    23    13    14 1   
    24    13    38 1   
    25    13    39 1   
    26    14    15 1   
    27    14    40 1   
    28    14    41 1   
    29    15    16 1   
    30    15    18 1   
    31    16    17 1   
    32    16    42 1   
    33    16    43 1   
    34    17    44 1   
    35    17    45 1   
    36    18    19 1   
    37    18    20 1   
    38    18    46 1   
    39    19    47 1   
    40    19    48 1   
    41    19    49 1   
    42    20    21 ar  
    43    20    29 ar  
    44    21    22 ar  
    45    21    26 ar  
    46    22    23 ar  
    47    22    50 1   
    48    23    24 ar  
    49    23    51 1   
    50    24    25 ar  
    51    24    52 1   
    52    25    26 ar  
    53    25    53 1   
    54    26    27 ar  
    55    27    28 ar  
    56    27    54 1   
    57    28    29 ar  
    58    28    55 1   
    59    29    56 1   
@<TRIPOS>SUBSTRUCTURE
     1 S88         1 TEMP              0 ****  ****    0 ROOT
