@<TRIPOS>MOLECULE
S88
   56    59     1     0     0
SMALL
abcg2


@<TRIPOS>ATOM
      1 F29         -5.8790    -1.3540     2.3120 f          1 S88      -0.180000
      2 C27         -6.2410    -0.7190     1.1840 ca         1 S88       0.169000
      3 C26         -7.5430    -0.8470     0.7370 ca         1 S88      -0.149000
      4 C25         -7.8960    -0.1840    -0.4280 ca         1 S88      -0.084000
      5 C24         -6.9630     0.5780    -1.1190 ca         1 S88      -0.124000
      6 C28         -5.2950     0.0350     0.5190 ca         1 S88      -0.136000
      7 C23         -5.6590     0.6960    -0.6510 ca         1 S88      -0.083300
      8 C22         -4.6620     1.5560    -1.3910 c3         1 S88       0.143300
      9 N21         -3.3500     0.9680    -1.4860 ns         1 S88      -0.507900
     10 C19         -2.3030     1.3230    -0.7170 c          1 S88       0.602100
     11 O20         -2.3620     2.2180     0.1160 o          1 S88      -0.597100
     12 C16         -1.0500     0.4980    -0.9220 c6         1 S88      -0.142700
     13 C15         -0.9730    -0.5940     0.1490 c6         1 S88      -0.067900
     14 C14          0.3130    -1.3990     0.0270 c6         1 S88       0.169300
     15 N13          1.4740    -0.5320     0.1130 n3         1 S88      -0.726600
     16 C18          1.4460     0.4600    -0.9510 c6         1 S88       0.169300
     17 C17          0.2150     1.3450    -0.8630 c6         1 S88      -0.067900
     18 C11          2.7580    -1.2240     0.1250 c3         1 S88       0.234800
     19 C12          2.7730    -2.4580     1.0290 c3         1 S88      -0.093100
     20 C10          3.8510    -0.2830     0.6040 ca         1 S88      -0.080300
     21 C2           5.1830    -0.3650     0.0990 ca         1 S88      -0.025000
     22 C1           5.5760    -1.2760    -0.9150 ca         1 S88      -0.107000
     23 C6           6.8640    -1.3190    -1.3750 ca         1 S88      -0.108000
     24 C5           7.8430    -0.4520    -0.8490 ca         1 S88      -0.112000
     25 C4           7.5030     0.4380     0.1310 ca         1 S88      -0.096000
     26 C3           6.1790     0.5030     0.6290 ca         1 S88      -0.041000
     27 C7           5.8380     1.4210     1.6490 ca         1 S88      -0.100000
     28 C8           4.5580     1.4750     2.1230 ca         1 S88      -0.109000
     29 C9           3.5700     0.6220     1.5970 ca         1 S88      -0.085000
     30 H1          -8.2560    -1.4520     1.2810 ha         1 S88       0.132000
     31 H2          -8.9070    -0.2710    -0.8040 ha         1 S88       0.117000
     32 H3          -7.2530     1.0790    -2.0350 ha         1 S88       0.115000
     33 H4          -4.2910     0.1060     0.9170 ha         1 S88       0.139000
     34 H5          -5.0330     1.7590    -2.3960 h1         1 S88       0.067700
     35 H6          -4.5670     2.5210    -0.8910 h1         1 S88       0.067700
     36 H7          -3.2330     0.2070    -2.1350 hn         1 S88       0.312500
     37 H8          -1.0900     0.0060    -1.9010 hc         1 S88       0.047700
     38 H9          -1.0130    -0.1370     1.1410 hc         1 S88       0.059450
     39 H10         -1.8260    -1.2730     0.0670 hc         1 S88       0.059450
     40 H11          0.3320    -2.1220     0.8410 h1         1 S88       0.034200
     41 H12          0.2980    -1.9770    -0.9150 h1         1 S88       0.034200
     42 H14          2.3370     1.0850    -0.8800 h1         1 S88       0.034200
     43 H15          1.4780    -0.0260    -1.9420 h1         1 S88       0.034200
     44 H16          0.2330     2.0660    -1.6830 hc         1 S88       0.059450
     45 H17          0.2420     1.9130     0.0700 hc         1 S88       0.059450
     46 H18          2.9940    -1.5660    -0.8950 h1         1 S88       0.026700
     47 H19          2.4160    -2.2110     2.0300 hc         1 S88       0.042367
     48 H20          2.1670    -3.2730     0.6330 hc         1 S88       0.042367
     49 H21          3.7920    -2.8330     1.1220 hc         1 S88       0.042367
     50 H22          4.8540    -1.9570    -1.3450 ha         1 S88       0.110000
     51 H23          7.1330    -2.0230    -2.1520 ha         1 S88       0.110000
     52 H24          8.8580    -0.4940    -1.2220 ha         1 S88       0.113000
     53 H25          8.2450     1.1100     0.5440 ha         1 S88       0.112000
     54 H26          6.6040     2.0770     2.0450 ha         1 S88       0.113000
     55 H27          4.2960     2.1760     2.9060 ha         1 S88       0.115000
     56 H28          2.5560     0.6860     1.9690 ha         1 S88       0.134000
@<TRIPOS>BOND
     1     1     2 1   
     2     2     3 ar  
     3     2     6 ar  
     4     3     4 ar  
     5     3    30 1   
     6     4     5 ar  
     7     4    31 1   
     8     5     7 ar  
     9     5    32 1   
    10     6     7 ar  
    11     6    33 1   
    12     7     8 1   
    13     8     9 1   
    14     8    34 1   
    15     8    35 1   
    16     9    10 1   
    17     9    36 1   
    18    10    11 2   
    19    10    12 1   
    20    12    13 1   
    21    12    17 1   
    22    12    37 1   
    23    13    14 1   
    24    13    38 1   
    25    13    39 1   
    26    14    15 1   
    27    14    40 1   
    28    14    41 1   
    29    15    16 1   
    30    15    18 1   
    31    16    17 1   
    32    16    42 1   
    33    16    43 1   
    34    17    44 1   
    35    17    45 1   
    36    18    19 1   
    37    18    20 1   
    38    18    46 1   
    39    19    47 1   
    40    19    48 1   
    41    19    49 1   
    42    20    21 ar  
    43    20    29 ar  
    44    21    22 ar  
    45    21    26 ar  
    46    22    23 ar  
    47    22    50 1   
    48    23    24 ar  
    49    23    51 1   
    50    24    25 ar  
    51    24    52 1   
    52    25    26 ar  
    53    25    53 1   
    54    26    27 ar  
    55    27    28 ar  
    56    27    54 1   
    57    28    29 ar  
    58    28    55 1   
    59    29    56 1   
@<TRIPOS>SUBSTRUCTURE
     1 S88         1 TEMP              0 ****  ****    0 ROOT
