@<TRIPOS>MOLECULE
S89
   60    62     1     0     0
SMALL
No Charge or Current Charge


@<TRIPOS>ATOM
      1 CAZ         -1.2700     0.1540    -0.4370 c          1 S89       0.612300
      2 OAB         -1.1210     0.8030    -1.4610 o          1 S89      -0.617100
      3 CAE         -2.4410    -0.7320    -0.2020 ce         1 S89      -0.293200
      4 CAF         -3.4670    -0.9070    -1.0880 cf         1 S89      -0.082200
      5 CBB         -4.6760    -1.7490    -0.9700 ca         1 S89      -0.074800
      6 CAP         -4.9240    -2.5390     0.1740 ca         1 S89      -0.087500
      7 CAJ         -6.0840    -3.3310     0.2560 ca         1 S89      -0.115000
      8 CAG         -7.0070    -3.3420    -0.8030 ca         1 S89      -0.097000
      9 CAK         -6.7680    -2.5610    -1.9440 ca         1 S89      -0.115000
     10 CAQ         -5.6100    -1.7690    -2.0270 ca         1 S89      -0.087500
     11 NAY         -0.3620     0.1700     0.5950 ns         1 S89      -0.486900
     12 CBF          0.8620     1.0040     0.6420 c3         1 S89       0.033700
     13 CBA          2.0510     0.1880     1.2190 c          1 S89       0.587100
     14 OAC          1.9060    -0.8620     1.8360 o          1 S89      -0.607100
     15 CAW          0.6240     2.3010     1.4600 c3         1 S89      -0.040100
     16 CBD         -0.5320     3.1470     0.9350 ca         1 S89      -0.080300
     17 CAU         -1.8010     3.0780     1.5440 ca         1 S89      -0.101000
     18 CAT         -0.3390     4.0020    -0.1670 ca         1 S89      -0.101000
     19 CAO         -2.8650     3.8540     1.0550 ca         1 S89      -0.107500
     20 CAN         -1.4040     4.7800    -0.6560 ca         1 S89      -0.107500
     21 CAI         -2.6670     4.7060    -0.0450 ca         1 S89      -0.107000
     22 N            3.2960     0.7330     0.9840 ns         1 S89      -0.490900
     23 CA           4.5780     0.1070     1.3350 c3         1 S89       0.110700
     24 C            5.5200     1.1270     2.0320 c3         1 S89       0.148600
     25 O            5.7120     2.2990     1.2180 oh         1 S89      -0.668000
     26 CB           5.2230    -0.5580     0.0920 c3         1 S89      -0.045100
     27 CG           4.3060    -1.5710    -0.5880 ca         1 S89      -0.084300
     28 CD1          3.5540    -1.2030    -1.7220 ca         1 S89      -0.100000
     29 CD2          4.1890    -2.8780    -0.0760 ca         1 S89      -0.100000
     30 CE1          2.6930    -2.1310    -2.3340 ca         1 S89      -0.108500
     31 CE2          3.3300    -3.8060    -0.6900 ca         1 S89      -0.108500
     32 CZ           2.5810    -3.4330    -1.8180 ca         1 S89      -0.111000
     33 HAE         -2.4520    -1.2600     0.7470 ha         1 S89       0.180000
     34 HAF         -3.4070    -0.3500    -2.0270 ha         1 S89       0.196000
     35 HAP         -4.2270    -2.5490     1.0070 ha         1 S89       0.114500
     36 HAJ         -6.2660    -3.9350     1.1410 ha         1 S89       0.115000
     37 HAG         -7.9030    -3.9550    -0.7380 ha         1 S89       0.114000
     38 HAK         -7.4810    -2.5680    -2.7660 ha         1 S89       0.115000
     39 HAQ         -5.4400    -1.1690    -2.9190 ha         1 S89       0.114500
     40 HNAY        -0.5510    -0.4430     1.3790 hn         1 S89       0.326500
     41 HBF          1.1410     1.2820    -0.3830 h1         1 S89       0.090700
     42 HAW          1.5430     2.9000     1.4600 hc         1 S89       0.060700
     43 HAWA         0.4450     2.0300     2.5080 hc         1 S89       0.060700
     44 HAU         -1.9640     2.4190     2.3940 ha         1 S89       0.108500
     45 HAT          0.6340     4.0630    -0.6480 ha         1 S89       0.108500
     46 HAO         -3.8430     3.7950     1.5270 ha         1 S89       0.111500
     47 HAN         -1.2500     5.4380    -1.5080 ha         1 S89       0.111500
     48 HAI         -3.4910     5.3070    -0.4240 ha         1 S89       0.112000
     49 HN           3.3300     1.6190     0.4940 hn         1 S89       0.325500
     50 HA           4.3870    -0.6910     2.0660 h1         1 S89       0.085700
     51 H            6.4830     0.6430     2.2420 h1         1 S89       0.030200
     52 H1           5.0770     1.4100     2.9960 h1         1 S89       0.030200
     53 HO           6.3130     2.8980     1.7150 ho         1 S89       0.447000
     54 HB           5.5140     0.2210    -0.6230 hc         1 S89       0.057700
     55 HBA          6.1560    -1.0500     0.3960 hc         1 S89       0.057700
     56 HD1          3.6300    -0.1960    -2.1250 ha         1 S89       0.111500
     57 HD2          4.7600    -3.1730     0.8020 ha         1 S89       0.111500
     58 HE1          2.1130    -1.8390    -3.2070 ha         1 S89       0.113000
     59 HE2          3.2430    -4.8140    -0.2890 ha         1 S89       0.113000
     60 HZ           1.9150    -4.1510    -2.2920 ha         1 S89       0.109000
@<TRIPOS>BOND
     1     1     2 2   
     2     1     3 1   
     3     1    11 1   
     4     3     4 2   
     5     3    33 1   
     6     4     5 1   
     7     4    34 1   
     8     5     6 ar  
     9     5    10 ar  
    10     6     7 ar  
    11     6    35 1   
    12     7     8 ar  
    13     7    36 1   
    14     8     9 ar  
    15     8    37 1   
    16     9    10 ar  
    17     9    38 1   
    18    10    39 1   
    19    11    12 1   
    20    11    40 1   
    21    12    13 1   
    22    12    15 1   
    23    12    41 1   
    24    13    14 2   
    25    13    22 1   
    26    15    16 1   
    27    15    42 1   
    28    15    43 1   
    29    16    17 ar  
    30    16    18 ar  
    31    17    19 ar  
    32    17    44 1   
    33    18    20 ar  
    34    18    45 1   
    35    19    21 ar  
    36    19    46 1   
    37    20    21 ar  
    38    20    47 1   
    39    21    48 1   
    40    22    23 1   
    41    22    49 1   
    42    23    24 1   
    43    23    26 1   
    44    23    50 1   
    45    24    25 1   
    46    24    51 1   
    47    24    52 1   
    48    25    53 1   
    49    26    27 1   
    50    26    54 1   
    51    26    55 1   
    52    27    28 ar  
    53    27    29 ar  
    54    28    30 ar  
    55    28    56 1   
    56    29    31 ar  
    57    29    57 1   
    58    30    32 ar  
    59    30    58 1   
    60    31    32 ar  
    61    31    59 1   
    62    32    60 1   
@<TRIPOS>SUBSTRUCTURE
     1 S89         1 TEMP              0 ****  ****    0 ROOT
