@<TRIPOS>MOLECULE
S89
   60    62     1     0     0
SMALL
bcc


@<TRIPOS>ATOM
      1 CAZ         -0.8150     0.3390    -0.4640 c          1 S89       0.679300
      2 OAB         -0.4270     0.7890    -1.5350 o          1 S89      -0.617100
      3 CAE         -1.9560    -0.5980    -0.3520 ce         1 S89      -0.243200
      4 CAF         -2.6100    -1.0070    -1.4420 cf         1 S89      -0.032200
      5 CBB         -3.7340    -1.9380    -1.4970 ca         1 S89      -0.074800
      6 CAP         -4.2110    -2.6290    -0.3780 ca         1 S89      -0.105500
      7 CAJ         -5.2800    -3.5000    -0.4910 ca         1 S89      -0.133000
      8 CAG         -5.8970    -3.7010    -1.7220 ca         1 S89      -0.115000
      9 CAK         -5.4330    -3.0250    -2.8420 ca         1 S89      -0.133000
     10 CAQ         -4.3590    -2.1540    -2.7280 ca         1 S89      -0.105500
     11 NAY         -0.2470     0.6490     0.7180 ns         1 S89      -0.553900
     12 CBF          0.8990     1.5050     0.8610 c3         1 S89       0.033700
     13 CBA          2.0890     0.6670     1.3290 c          1 S89       0.654100
     14 OAC          1.9820    -0.0770     2.2910 o          1 S89      -0.607100
     15 CAW          0.6300     2.6330     1.8690 c3         1 S89      -0.040100
     16 CBD         -0.5270     3.4890     1.4410 ca         1 S89      -0.080300
     17 CAU         -1.8080     3.2560     1.9340 ca         1 S89      -0.119000
     18 CAT         -0.3460     4.5090     0.5100 ca         1 S89      -0.119000
     19 CAO         -2.8840     4.0260     1.5110 ca         1 S89      -0.125500
     20 CAN         -1.4170     5.2800     0.0830 ca         1 S89      -0.125500
     21 CAI         -2.6920     5.0400     0.5820 ca         1 S89      -0.125000
     22 N            3.2170     0.8490     0.6300 ns         1 S89      -0.557900
     23 CA           4.4260     0.0730     0.8120 c3         1 S89       0.110700
     24 C            5.6340     0.9890     0.9010 c3         1 S89       0.125400
     25 O            5.7540     1.7060    -0.3070 oh         1 S89      -0.605800
     26 CB           4.5600    -0.9760    -0.3050 c3         1 S89      -0.045100
     27 CG           3.3820    -1.9070    -0.3400 ca         1 S89      -0.084300
     28 CD1          2.2710    -1.6250    -1.1310 ca         1 S89      -0.118000
     29 CD2          3.3520    -3.0450     0.4640 ca         1 S89      -0.118000
     30 CE1          1.1550    -2.4500    -1.1140 ca         1 S89      -0.126500
     31 CE2          2.2420    -3.8770     0.4800 ca         1 S89      -0.126500
     32 CZ           1.1360    -3.5790    -0.3070 ca         1 S89      -0.129000
     33 HAE         -2.2340    -0.9400     0.6390 ha         1 S89       0.130000
     34 HAF         -2.2840    -0.6170    -2.4020 ha         1 S89       0.146000
     35 HAP         -3.7430    -2.4950     0.5890 ha         1 S89       0.132500
     36 HAJ         -5.6330    -4.0320     0.3830 ha         1 S89       0.133000
     37 HAG         -6.7330    -4.3830    -1.8050 ha         1 S89       0.132000
     38 HAK         -5.9040    -3.1760    -3.8040 ha         1 S89       0.133000
     39 HAQ         -3.9990    -1.6290    -3.6050 ha         1 S89       0.132500
     40 HNAY        -0.5970     0.2070     1.5540 hn         1 S89       0.326500
     41 HBF          1.1000     1.9470    -0.1150 h1         1 S89       0.090700
     42 HAW          1.5380     3.2360     1.9560 hc         1 S89       0.060700
     43 HAWA         0.4390     2.2000     2.8540 hc         1 S89       0.060700
     44 HAU         -1.9650     2.4710     2.6650 ha         1 S89       0.126500
     45 HAT          0.6460     4.7060     0.1190 ha         1 S89       0.126500
     46 HAO         -3.8720     3.8340     1.9080 ha         1 S89       0.129500
     47 HAN         -1.2590     6.0730    -0.6370 ha         1 S89       0.129500
     48 HAI         -3.5280     5.6440     0.2540 ha         1 S89       0.130000
     49 HN           3.1960     1.4680    -0.1650 hn         1 S89       0.325500
     50 HA           4.3430    -0.4440     1.7700 h1         1 S89       0.085700
     51 H            6.5220     0.3760     1.1010 h1         1 S89       0.030200
     52 H1           5.5010     1.6610     1.7570 h1         1 S89       0.030200
     53 HO           6.4340     2.3760    -0.1980 ho         1 S89       0.408000
     54 HB           4.6670    -0.4700    -1.2670 hc         1 S89       0.057700
     55 HBA          5.4820    -1.5370    -0.1380 hc         1 S89       0.057700
     56 HD1          2.2750    -0.7480    -1.7670 ha         1 S89       0.129500
     57 HD2          4.2080    -3.2840     1.0850 ha         1 S89       0.129500
     58 HE1          0.2990    -2.2080    -1.7310 ha         1 S89       0.131000
     59 HE2          2.2390    -4.7590     1.1080 ha         1 S89       0.131000
     60 HZ           0.2680    -4.2250    -0.2930 ha         1 S89       0.127000
@<TRIPOS>BOND
     1     1     2 2   
     2     1     3 1   
     3     1    11 1   
     4     3     4 2   
     5     3    33 1   
     6     4     5 1   
     7     4    34 1   
     8     5     6 ar  
     9     5    10 ar  
    10     6     7 ar  
    11     6    35 1   
    12     7     8 ar  
    13     7    36 1   
    14     8     9 ar  
    15     8    37 1   
    16     9    10 ar  
    17     9    38 1   
    18    10    39 1   
    19    11    12 1   
    20    11    40 1   
    21    12    13 1   
    22    12    15 1   
    23    12    41 1   
    24    13    14 2   
    25    13    22 1   
    26    15    16 1   
    27    15    42 1   
    28    15    43 1   
    29    16    17 ar  
    30    16    18 ar  
    31    17    19 ar  
    32    17    44 1   
    33    18    20 ar  
    34    18    45 1   
    35    19    21 ar  
    36    19    46 1   
    37    20    21 ar  
    38    20    47 1   
    39    21    48 1   
    40    22    23 1   
    41    22    49 1   
    42    23    24 1   
    43    23    26 1   
    44    23    50 1   
    45    24    25 1   
    46    24    51 1   
    47    24    52 1   
    48    25    53 1   
    49    26    27 1   
    50    26    54 1   
    51    26    55 1   
    52    27    28 ar  
    53    27    29 ar  
    54    28    30 ar  
    55    28    56 1   
    56    29    31 ar  
    57    29    57 1   
    58    30    32 ar  
    59    30    58 1   
    60    31    32 ar  
    61    31    59 1   
    62    32    60 1   
@<TRIPOS>SUBSTRUCTURE
     1 S89         1 TEMP              0 ****  ****    0 ROOT
