@<TRIPOS>MOLECULE
S8A
   22    23     1     0     0
SMALL
bcc


@<TRIPOS>ATOM
      1 O4          -0.4720    -2.3040     0.8970 o          1 S8A      -0.561500
      2 C7          -0.0360    -1.2060     0.6510 c          1 S8A       0.743100
      3 C3           1.3470    -0.8950     0.2180 ca         1 S8A      -0.070600
      4 C2           2.3830    -1.7930     0.0430 ca         1 S8A      -0.082000
      5 C8           3.6170    -1.3000    -0.3670 ca         1 S8A      -0.103000
      6 C1           3.8080     0.0600    -0.5910 ca         1 S8A      -0.143000
      7 C9           2.7690     0.9680    -0.4100 ca         1 S8A      -0.024000
      8 C5           1.5540     0.4520    -0.0130 ca         1 S8A      -0.253500
      9 S1           0.0780     1.3490     0.3120 sy         1 S8A       1.319900
     10 O1           0.2370     2.2250     1.4560 o          1 S8A      -0.599800
     11 O5          -0.5040     1.9140    -0.8890 o          1 S8A      -0.599800
     12 N1          -0.7490    -0.0380     0.7800 n          1 S8A      -0.495200
     13 C4          -2.1970    -0.0160     0.8370 c3         1 S8A      -0.059000
     14 C6          -2.8620    -0.4400    -0.4960 c          1 S8A       0.930600
     15 O3          -2.1170    -0.8400    -1.4010 o          1 S8A      -0.817800
     16 O2          -4.1020    -0.3440    -0.4940 o          1 S8A      -0.817800
     17 H1           2.2360    -2.8500     0.2200 ha         1 S8A       0.152000
     18 H2           4.4420    -1.9840    -0.5120 ha         1 S8A       0.124000
     19 H3           4.7760     0.4200    -0.9080 ha         1 S8A       0.122000
     20 H4           2.9170     2.0260    -0.5800 ha         1 S8A       0.139000
     21 H5          -2.5150    -0.6840     1.6390 h1         1 S8A       0.048200
     22 H6          -2.5250     0.9830     1.1310 h1         1 S8A       0.048200
@<TRIPOS>BOND
     1     1     2 2   
     2     2     3 1   
     3     2    12 1   
     4     3     4 ar  
     5     3     8 ar  
     6     4     5 ar  
     7     4    17 1   
     8     5     6 ar  
     9     5    18 1   
    10     6     7 ar  
    11     6    19 1   
    12     7     8 ar  
    13     7    20 1   
    14     8     9 1   
    15     9    10 2   
    16     9    11 2   
    17     9    12 1   
    18    12    13 1   
    19    13    14 1   
    20    13    21 1   
    21    13    22 1   
    22    14    15 1   
    23    14    16 1   
@<TRIPOS>SUBSTRUCTURE
     1 S8A         1 TEMP              0 ****  ****    0 ROOT
