@<TRIPOS>MOLECULE
S8A
   22    23     1     0     0
SMALL
No Charge or Current Charge


@<TRIPOS>ATOM
      1 O4          -0.1490    -2.5130     1.0760 o          1 S8A      -0.486000
      2 C7           0.1220    -1.4080     0.6250 c          1 S8A       0.600600
      3 C3           1.5130    -0.9410     0.2620 ca         1 S8A      -0.070600
      4 C2           2.7020    -1.6850     0.3530 ca         1 S8A      -0.064000
      5 C8           3.9150    -1.0750    -0.0320 ca         1 S8A      -0.085000
      6 C1           3.9330     0.2590    -0.5000 ca         1 S8A      -0.125000
      7 C9           2.7390     1.0020    -0.5890 ca         1 S8A      -0.006000
      8 C5           1.5460     0.3740    -0.2000 ca         1 S8A      -0.253500
      9 S1          -0.0960     1.0450    -0.1990 sy         1 S8A       1.178300
     10 O1          -0.1960     2.0910     0.8270 o          1 S8A      -0.529000
     11 O5          -0.5230     1.2860    -1.5840 o          1 S8A      -0.529000
     12 N1          -0.8190    -0.4010     0.3860 n          1 S8A      -0.428200
     13 C4          -2.2720    -0.5260     0.7170 c3         1 S8A      -0.059000
     14 C6          -3.2460     0.3340    -0.1270 c          1 S8A       0.720000
     15 O3          -3.6540    -0.1270    -1.1840 o          1 S8A      -0.712500
     16 O2          -3.5950     1.4190     0.3170 o          1 S8A      -0.712500
     17 H1           2.6890    -2.7110     0.7130 ha         1 S8A       0.134000
     18 H2           4.8440    -1.6370     0.0320 ha         1 S8A       0.106000
     19 H3           4.8750     0.7170    -0.7930 ha         1 S8A       0.104000
     20 H4           2.7450     2.0300    -0.9470 ha         1 S8A       0.121000
     21 H5          -2.5770    -1.5740     0.6010 h1         1 S8A       0.048200
     22 H6          -2.4120    -0.2570     1.7720 h1         1 S8A       0.048200
@<TRIPOS>BOND
     1     1     2 2   
     2     2     3 1   
     3     2    12 1   
     4     3     4 ar  
     5     3     8 ar  
     6     4     5 ar  
     7     4    17 1   
     8     5     6 ar  
     9     5    18 1   
    10     6     7 ar  
    11     6    19 1   
    12     7     8 ar  
    13     7    20 1   
    14     8     9 1   
    15     9    10 2   
    16     9    11 2   
    17     9    12 1   
    18    12    13 1   
    19    13    14 1   
    20    13    21 1   
    21    13    22 1   
    22    14    15 1   
    23    14    16 1   
@<TRIPOS>SUBSTRUCTURE
     1 S8A         1 TEMP              0 ****  ****    0 ROOT
