@<TRIPOS>MOLECULE
S8B
   35    36     1     0     0
SMALL
bcc


@<TRIPOS>ATOM
      1 N1           6.8830     2.0150    28.7860 ns         1 S8B      -0.575900
      2 N3           6.7120    -0.4300    17.2640 nb         1 S8B      -0.658000
      3 C4           5.7830     1.8600    28.0400 c          1 S8B       0.575600
      4 C5           6.0310     1.6160    26.5750 ca         1 S8B       0.366800
      5 C6           5.2940     0.5620    24.6960 ca         1 S8B       0.427200
      6 C7           6.3160     1.1120    23.9120 ca         1 S8B      -0.079300
      7 C8           7.2200     1.9700    24.5360 ca         1 S8B      -0.076000
      8 C10          6.4100     0.8000    22.5310 cg         1 S8B      -0.095000
      9 C13          7.5980     0.6940    19.1800 ca         1 S8B      -0.226300
     10 C15          5.7280    -0.8940    18.0260 ca         1 S8B       0.400700
     11 C1           6.6710     3.8140    30.4490 c3         1 S8B      -0.108600
     12 C11          6.4820     0.5280    21.3580 ch         1 S8B      -0.095000
     13 C12          6.5610     0.2050    19.9770 ca         1 S8B       0.065000
     14 C14          7.6230     0.3460    17.8400 ca         1 S8B       0.400700
     15 C16          5.6030    -0.6120    19.3750 ca         1 S8B      -0.226300
     16 C2           6.8550     2.3190    30.2100 c3         1 S8B       0.115700
     17 C3           8.1300     1.7950    30.8520 c3         1 S8B      -0.108600
     18 C9           7.0760     2.2220    25.8880 ca         1 S8B      -0.231300
     19 N2           5.1530     0.8130    25.9810 nb         1 S8B      -0.619000
     20 O1           4.6440     1.8950    28.4790 o          1 S8B      -0.565100
     21 H8           7.7870     1.9150    28.3510 hn         1 S8B       0.312500
     22 H9           4.5700    -0.1060    24.2420 h4         1 S8B       0.033100
     23 H10          8.0170     2.4320    23.9700 ha         1 S8B       0.147000
     24 H14          4.9950    -1.5270    17.5390 h4         1 S8B       0.022600
     25 H1           6.6020     4.0210    31.5180 hc         1 S8B       0.042700
     26 H2           7.5150     4.3780    30.0490 hc         1 S8B       0.042700
     27 H3           5.7600     4.1790    29.9770 hc         1 S8B       0.042700
     28 H13          8.4190     0.7160    17.2040 h4         1 S8B       0.022600
     29 H15          4.7800    -1.0190    19.9460 ha         1 S8B       0.148000
     30 H4           6.0030     1.7870    30.6390 h1         1 S8B       0.075700
     31 H5           8.1190     1.9900    31.9230 hc         1 S8B       0.042700
     32 H6           8.2360     0.7200    30.7060 hc         1 S8B       0.042700
     33 H7           9.0120     2.2860    30.4350 hc         1 S8B       0.042700
     34 H11          7.7600     2.8970    26.3840 ha         1 S8B       0.145000
     35 H12          8.3680     1.3290    19.5960 ha         1 S8B       0.148000
@<TRIPOS>BOND
     1     1     3 1   
     2     1    16 1   
     3     1    21 1   
     4     2    10 ar  
     5     2    14 ar  
     6     3     4 1   
     7     3    20 2   
     8     4    18 ar  
     9     4    19 ar  
    10     5     6 ar  
    11     5    19 ar  
    12     5    22 1   
    13     6     7 ar  
    14     6     8 1   
    15     7    18 ar  
    16     7    23 1   
    17     8    12 3   
    18     9    13 ar  
    19     9    14 ar  
    20     9    35 1   
    21    10    15 ar  
    22    10    24 1   
    23    11    16 1   
    24    11    25 1   
    25    11    26 1   
    26    11    27 1   
    27    12    13 1   
    28    13    15 ar  
    29    14    28 1   
    30    15    29 1   
    31    16    17 1   
    32    16    30 1   
    33    17    31 1   
    34    17    32 1   
    35    17    33 1   
    36    18    34 1   
@<TRIPOS>SUBSTRUCTURE
     1 S8B         1 TEMP              0 ****  ****    0 ROOT
