@<TRIPOS>MOLECULE
S8B
   35    36     1     0     0
SMALL
No Charge or Current Charge


@<TRIPOS>ATOM
      1 N1           6.9080     2.1130    28.8530 ns         1 S8B      -0.508900
      2 N3           6.7730    -0.2890    17.1290 nb         1 S8B      -0.658000
      3 C4           5.7840     1.7130    28.1410 c          1 S8B       0.508600
      4 C5           5.9640     1.4470    26.6310 ca         1 S8B       0.301500
      5 C6           5.0120     0.8090    24.5840 ca         1 S8B       0.361900
      6 C7           6.2330     0.9510    23.8990 ca         1 S8B      -0.014000
      7 C8           7.3630     1.3590    24.6240 ca         1 S8B      -0.058000
      8 C10          6.3240     0.6840    22.4920 cg         1 S8B      -0.095000
      9 C13          7.5950     0.7530    19.1570 ca         1 S8B      -0.143000
     10 C15          5.7510    -0.8100    17.8480 ca         1 S8B       0.335400
     11 C1           6.4740     3.8800    30.5270 c3         1 S8B      -0.108600
     12 C11          6.4130     0.4630    21.2950 ch         1 S8B      -0.095000
     13 C12          6.5340     0.2110    19.8990 ca         1 S8B       0.065000
     14 C14          7.6770     0.4790    17.7820 ca         1 S8B       0.335400
     15 C16          5.5950    -0.5870    19.2260 ca         1 S8B      -0.143000
     16 C2           6.9270     2.4280    30.2830 c3         1 S8B       0.115700
     17 C3           8.3240     2.1480    30.8670 c3         1 S8B      -0.108600
     18 C9           7.2260     1.6080    26.0010 ca         1 S8B      -0.148000
     19 N2           4.8730     1.0480    25.9110 nb         1 S8B      -0.619000
     20 O1           4.7050     1.5840    28.7140 o          1 S8B      -0.565100
     21 H8           7.7750     2.2040    28.3380 hn         1 S8B       0.312500
     22 H9           4.1120     0.4940    24.0570 h4         1 S8B       0.033100
     23 H10          8.3270     1.4810    24.1330 ha         1 S8B       0.129000
     24 H14          5.0370    -1.4250    17.3020 h4         1 S8B       0.022600
     25 H1           6.4650     4.1050    31.6010 hc         1 S8B       0.042700
     26 H2           7.1500     4.5890    30.0330 hc         1 S8B       0.042700
     27 H3           5.4620     4.0420    30.1390 hc         1 S8B       0.042700
     28 H13          8.4900     0.8880    17.1830 h4         1 S8B       0.022600
     29 H15          4.7550    -1.0300    19.7540 ha         1 S8B       0.130000
     30 H4           6.2180     1.7600    30.7920 h1         1 S8B       0.075700
     31 H5           8.3350     2.3390    31.9470 hc         1 S8B       0.042700
     32 H6           8.6070     1.1010    30.7050 hc         1 S8B       0.042700
     33 H7           9.0810     2.7870    30.3970 hc         1 S8B       0.042700
     34 H11          8.1000     1.9250    26.5610 ha         1 S8B       0.127000
     35 H12          8.3480     1.3770    19.6300 ha         1 S8B       0.130000
@<TRIPOS>BOND
     1     1     3 1   
     2     1    16 1   
     3     1    21 1   
     4     2    10 ar  
     5     2    14 ar  
     6     3     4 1   
     7     3    20 2   
     8     4    18 ar  
     9     4    19 ar  
    10     5     6 ar  
    11     5    19 ar  
    12     5    22 1   
    13     6     7 ar  
    14     6     8 1   
    15     7    18 ar  
    16     7    23 1   
    17     8    12 3   
    18     9    13 ar  
    19     9    14 ar  
    20     9    35 1   
    21    10    15 ar  
    22    10    24 1   
    23    11    16 1   
    24    11    25 1   
    25    11    26 1   
    26    11    27 1   
    27    12    13 1   
    28    13    15 ar  
    29    14    28 1   
    30    15    29 1   
    31    16    17 1   
    32    16    30 1   
    33    17    31 1   
    34    17    32 1   
    35    17    33 1   
    36    18    34 1   
@<TRIPOS>SUBSTRUCTURE
     1 S8B         1 TEMP              0 ****  ****    0 ROOT
