@<TRIPOS>MOLECULE
S8D
   34    34     1     0     0
SMALL
bcc


@<TRIPOS>ATOM
      1 N1          49.3950     5.4170    63.0070 n3         1 S8D      -0.727600
      2 C4          48.0410     5.8430    63.3160 c6         1 S8D       0.128800
      3 C5          47.5360     6.8480    62.2950 c6         1 S8D       0.142100
      4 C6          46.1540     7.3580    62.6430 c3         1 S8D      -0.089100
      5 C7          49.7250     7.5530    61.9210 c6         1 S8D       0.135400
      6 C8          50.2950     6.5640    62.9310 c6         1 S8D       0.146500
      7 N           48.9050     2.5560    62.5880 ns         1 S8D      -0.568900
      8 C           49.7490     1.7420    60.4550 c3         1 S8D      -0.116100
      9 O           48.4640     2.6260    64.7880 o          1 S8D      -0.617100
     10 C1          49.5440     2.9540    61.3460 c3         1 S8D       0.121000
     11 C2          49.0050     3.1180    63.8030 c          1 S8D       0.668100
     12 C3          49.8360     4.3860    63.9190 c3         1 S8D       0.085800
     13 C9          51.7020     6.1860    62.4870 c3         1 S8D      -0.092100
     14 O1          48.4140     7.9550    62.2260 os         1 S8D      -0.403600
     15 H2          47.9720     6.2800    64.3290 h1         1 S8D       0.049700
     16 H3          47.3720     4.9790    63.2950 h1         1 S8D       0.049700
     17 H4          47.5070     6.3450    61.3150 h1         1 S8D       0.041700
     18 H5          45.4410     6.5340    62.6520 hc         1 S8D       0.045700
     19 H6          46.1430     7.8270    63.6280 hc         1 S8D       0.045700
     20 H7          45.8090     8.0880    61.9110 hc         1 S8D       0.045700
     21 H8          49.7680     7.0960    60.9200 h1         1 S8D       0.049200
     22 H9          50.3430     8.4530    61.9040 h1         1 S8D       0.049200
     23 H10         50.3590     7.0740    63.9100 h1         1 S8D       0.038700
     24 H11         48.3060     1.7430    62.5410 hn         1 S8D       0.309500
     25 H12         50.2270     2.0420    59.5230 hc         1 S8D       0.042367
     26 H13         50.3850     0.9990    60.9360 hc         1 S8D       0.042367
     27 H14         48.8000     1.2680    60.2010 hc         1 S8D       0.042367
     28 H15         50.5060     3.4140    61.5650 h1         1 S8D       0.048700
     29 H16         48.9480     3.7090    60.8280 h1         1 S8D       0.048700
     30 H17         50.8740     4.1200    63.7040 h1         1 S8D       0.058200
     31 H18         49.8010     4.7030    64.9720 h1         1 S8D       0.058200
     32 H19         52.2490     5.6220    63.2420 hc         1 S8D       0.040367
     33 H20         51.6750     5.5950    61.5700 hc         1 S8D       0.040367
     34 H21         52.2800     7.0890    62.2890 hc         1 S8D       0.040367
@<TRIPOS>BOND
     1     1     2 1   
     2     1     6 1   
     3     1    12 1   
     4     2     3 1   
     5     2    15 1   
     6     2    16 1   
     7     3     4 1   
     8     3    14 1   
     9     3    17 1   
    10     4    18 1   
    11     4    19 1   
    12     4    20 1   
    13     5     6 1   
    14     5    14 1   
    15     5    21 1   
    16     5    22 1   
    17     6    13 1   
    18     6    23 1   
    19     7    10 1   
    20     7    11 1   
    21     7    24 1   
    22     8    10 1   
    23     8    25 1   
    24     8    26 1   
    25     8    27 1   
    26     9    11 2   
    27    10    28 1   
    28    10    29 1   
    29    11    12 1   
    30    12    30 1   
    31    12    31 1   
    32    13    32 1   
    33    13    33 1   
    34    13    34 1   
@<TRIPOS>SUBSTRUCTURE
     1 S8D         1 TEMP              0 ****  ****    0 ROOT
