@<TRIPOS>MOLECULE
S8D
   34    34     1     0     0
SMALL
No Charge or Current Charge


@<TRIPOS>ATOM
      1 N1          49.4080     5.4820    62.9250 n3         1 S8D      -0.727600
      2 C4          47.9850     5.8610    63.2080 c6         1 S8D       0.128800
      3 C5          47.4820     7.0030    62.2730 c6         1 S8D       0.165300
      4 C6          46.0590     7.4860    62.6400 c3         1 S8D      -0.089100
      5 C7          49.7240     7.8250    62.0170 c6         1 S8D       0.158600
      6 C8          50.2960     6.6970    62.9400 c6         1 S8D       0.146500
      7 N           49.1050     2.2260    62.6940 ns         1 S8D      -0.501900
      8 C           49.5960     1.4550    60.3910 c3         1 S8D      -0.116100
      9 O           48.3650     2.6860    64.7680 o          1 S8D      -0.617100
     10 C1          49.7320     2.5860    61.4220 c3         1 S8D       0.121000
     11 C2          49.0440     3.0340    63.8100 c          1 S8D       0.601100
     12 C3          49.8780     4.3550    63.8070 c3         1 S8D       0.085800
     13 C9          51.7610     6.3850    62.5210 c3         1 S8D      -0.092100
     14 O1          48.3600     8.1440    62.3740 os         1 S8D      -0.450000
     15 H2          47.8820     6.1900    64.2530 h1         1 S8D       0.049700
     16 H3          47.3220     4.9940    63.0780 h1         1 S8D       0.049700
     17 H4          47.4760     6.6480    61.2320 h1         1 S8D       0.041700
     18 H5          45.3340     6.6670    62.5580 hc         1 S8D       0.045700
     19 H6          46.0190     7.8670    63.6680 hc         1 S8D       0.045700
     20 H7          45.7300     8.2880    61.9680 hc         1 S8D       0.045700
     21 H8          49.7550     7.5030    60.9660 h1         1 S8D       0.049200
     22 H9          50.3350     8.7330    62.1120 h1         1 S8D       0.049200
     23 H10         50.3360     7.1030    63.9620 h1         1 S8D       0.038700
     24 H11         48.5690     1.3690    62.7400 hn         1 S8D       0.309500
     25 H12         50.0720     1.7440    59.4460 hc         1 S8D       0.042367
     26 H13         50.0790     0.5400    60.7540 hc         1 S8D       0.042367
     27 H14         48.5400     1.2380    60.1910 hc         1 S8D       0.042367
     28 H15         50.7970     2.7970    61.5900 h1         1 S8D       0.048700
     29 H16         49.2550     3.4930    61.0290 h1         1 S8D       0.048700
     30 H17         50.8960     4.0550    63.5320 h1         1 S8D       0.058200
     31 H18         49.9250     4.6980    64.8490 h1         1 S8D       0.058200
     32 H19         52.2730     5.7610    63.2610 hc         1 S8D       0.040367
     33 H20         51.7950     5.8670    61.5550 hc         1 S8D       0.040367
     34 H21         52.3470     7.3060    62.4260 hc         1 S8D       0.040367
@<TRIPOS>BOND
     1     1     2 1   
     2     1     6 1   
     3     1    12 1   
     4     2     3 1   
     5     2    15 1   
     6     2    16 1   
     7     3     4 1   
     8     3    14 1   
     9     3    17 1   
    10     4    18 1   
    11     4    19 1   
    12     4    20 1   
    13     5     6 1   
    14     5    14 1   
    15     5    21 1   
    16     5    22 1   
    17     6    13 1   
    18     6    23 1   
    19     7    10 1   
    20     7    11 1   
    21     7    24 1   
    22     8    10 1   
    23     8    25 1   
    24     8    26 1   
    25     8    27 1   
    26     9    11 2   
    27    10    28 1   
    28    10    29 1   
    29    11    12 1   
    30    12    30 1   
    31    12    31 1   
    32    13    32 1   
    33    13    33 1   
    34    13    34 1   
@<TRIPOS>SUBSTRUCTURE
     1 S8D         1 TEMP              0 ****  ****    0 ROOT
