@<TRIPOS>MOLECULE
S8F
   41    43     1     0     0
SMALL
No Charge or Current Charge


@<TRIPOS>ATOM
      1 N01          6.2240    -2.8170    -0.8330 nc         1 S8F      -0.671000
      2 C02          5.0310    -2.2270    -0.7820 cd         1 S8F       0.435400
      3 N03          5.0960    -1.1830     0.1210 na         1 S8F      -0.191000
      4 C04          6.4150    -0.9720     0.4760 cd         1 S8F      -0.195000
      5 C05          7.0660    -2.0500    -0.0630 cc         1 S8F       0.228900
      6 C1          -4.9350     0.4910     0.5080 ca         1 S8F      -0.051300
      7 N11          4.7330     0.7020    -1.2830 nb         1 S8F      -0.192000
      8 C12          4.3520    -0.0580    -0.2230 ca         1 S8F       0.238500
      9 N13          3.2600     0.2340     0.5260 nb         1 S8F      -0.175000
     10 C14          2.5200     1.3180     0.2130 ca         1 S8F       0.150300
     11 C15          2.8650     2.1410    -0.8680 ca         1 S8F      -0.240000
     12 C16          4.0020     1.7870    -1.6020 ca         1 S8F       0.136900
     13 C17          1.2960     1.6090     1.0810 c3         1 S8F       0.105500
     14 N18          0.0400     1.1330     0.4540 n7         1 S8F      -0.844400
     15 C19         -1.1850     1.3900     1.2310 c3         1 S8F       0.158800
     16 C2          -5.3250    -0.8500     0.6960 ca         1 S8F      -0.148000
     17 C20         -2.4140     0.8260     0.4900 c3         1 S8F      -0.078400
     18 C21         -3.7350     1.0540     1.2560 c3         1 S8F      -0.033100
     19 C3          -6.4290    -1.3660     0.0010 ca         1 S8F       0.173000
     20 C4          -7.1530    -0.5560    -0.8870 ca         1 S8F      -0.152000
     21 C5          -6.7680     0.7820    -1.0820 ca         1 S8F      -0.083000
     22 C6          -5.6620     1.3020    -0.3860 ca         1 S8F      -0.127000
     23 F7          -6.7980    -2.6530     0.1860 f          1 S8F      -0.180000
     24 H02          4.1320    -2.4880    -1.3290 h5         1 S8F       0.078100
     25 H04          6.7730    -0.1320     1.0610 h4         1 S8F       0.174000
     26 H05          8.1160    -2.3030     0.0140 h4         1 S8F       0.040100
     27 H15          2.2770     3.0160    -1.1290 ha         1 S8F       0.139000
     28 H16          4.3350     2.3740    -2.4560 h4         1 S8F       0.032100
     29 H17          1.4340     1.1330     2.0620 h1         1 S8F       0.049200
     30 H17A         1.2470     2.6920     1.2560 h1         1 S8F       0.049200
     31 HN18        -0.0590     1.5920    -0.4610 hn         1 S8F       0.410000
     32 H19         -1.1150     0.9160     2.2200 h1         1 S8F       0.029700
     33 H19A        -1.3220     2.4700     1.3840 h1         1 S8F       0.029700
     34 H2          -4.7740    -1.4910     1.3790 ha         1 S8F       0.132000
     35 H20         -2.4890     1.2950    -0.4990 hc         1 S8F       0.053700
     36 H20A        -2.2750    -0.2500     0.3280 hc         1 S8F       0.053700
     37 H21         -3.8690     2.1290     1.4300 hc         1 S8F       0.048700
     38 H21A        -3.6600     0.5910     2.2480 hc         1 S8F       0.048700
     39 H4          -8.0070    -0.9640    -1.4220 ha         1 S8F       0.132000
     40 H5          -7.3250     1.4150    -1.7700 ha         1 S8F       0.116000
     41 H6          -5.3690     2.3380    -0.5430 ha         1 S8F       0.114000
@<TRIPOS>BOND
     1     1     2 2   
     2     1     5 1   
     3     2     3 1   
     4     2    24 1   
     5     3     4 1   
     6     3     8 1   
     7     4     5 2   
     8     4    25 1   
     9     5    26 1   
    10     6    16 ar  
    11     6    18 1   
    12     6    22 ar  
    13     7     8 ar  
    14     7    12 ar  
    15     8     9 ar  
    16     9    10 ar  
    17    10    11 ar  
    18    10    13 1   
    19    11    12 ar  
    20    11    27 1   
    21    12    28 1   
    22    13    14 1   
    23    13    29 1   
    24    13    30 1   
    25    14    15 1   
    26    14    31 1   
    27    15    17 1   
    28    15    32 1   
    29    15    33 1   
    30    16    19 ar  
    31    16    34 1   
    32    17    18 1   
    33    17    35 1   
    34    17    36 1   
    35    18    37 1   
    36    18    38 1   
    37    19    20 ar  
    38    19    23 1   
    39    20    21 ar  
    40    20    39 1   
    41    21    22 ar  
    42    21    40 1   
    43    22    41 1   
@<TRIPOS>SUBSTRUCTURE
     1 S8F         1 TEMP              0 ****  ****    0 ROOT
