@<TRIPOS>MOLECULE
S8F
   41    43     1     0     0
SMALL
bcc


@<TRIPOS>ATOM
      1 N01          4.4010    -3.1880    -0.0100 nc         1 S8F      -0.671000
      2 C02          3.7820    -2.0640     0.1980 cd         1 S8F       0.435400
      3 N03          4.4940    -1.0040    -0.2830 na         1 S8F      -0.241700
      4 C04          5.6480    -1.5130    -0.8350 cd         1 S8F      -0.227600
      5 C05          5.5670    -2.8570    -0.6550 cc         1 S8F       0.294200
      6 C1          -4.6070     0.2300     0.3850 ca         1 S8F      -0.051300
      7 N11          4.9550     1.2080    -0.7580 nb         1 S8F      -0.718000
      8 C12          4.1150     0.3410    -0.2250 ca         1 S8F       0.764500
      9 N13          2.9620     0.5950     0.3570 nb         1 S8F      -0.701000
     10 C14          2.5890     1.8690     0.4210 ca         1 S8F       0.478600
     11 C15          3.3910     2.8720    -0.1070 ca         1 S8F      -0.388600
     12 C16          4.5820     2.4790    -0.6920 ca         1 S8F       0.465200
     13 C17          1.2740     2.1710     1.0810 c3         1 S8F       0.105500
     14 N18          0.1950     1.4620     0.4270 n7         1 S8F      -0.789200
     15 C19         -1.0700     1.5990     1.1240 c3         1 S8F       0.158800
     16 C2          -4.8860    -1.1070     0.6550 ca         1 S8F      -0.166000
     17 C20         -2.1730     0.8450     0.3990 c3         1 S8F      -0.078400
     18 C21         -3.5140     0.9450     1.1270 c3         1 S8F      -0.033100
     19 C3          -5.8670    -1.7540    -0.0730 ca         1 S8F       0.137900
     20 C4          -6.5900    -1.1280    -1.0690 ca         1 S8F      -0.170000
     21 C5          -6.3060     0.2050    -1.3350 ca         1 S8F      -0.101000
     22 C6          -5.3270     0.8780    -0.6180 ca         1 S8F      -0.145000
     23 F7          -6.1260    -3.0450     0.2030 f          1 S8F      -0.144900
     24 H02          2.8280    -1.9400     0.6840 h5         1 S8F       0.078100
     25 H04          6.3950    -0.8870    -1.2890 h4         1 S8F       0.192000
     26 H05          6.2850    -3.6040    -0.9540 h4         1 S8F       0.040100
     27 H15          3.1000     3.9110    -0.0670 ha         1 S8F       0.157000
     28 H16          5.2580     3.2070    -1.1250 h4         1 S8F       0.032100
     29 H17          1.3330     1.8300     2.1190 h1         1 S8F       0.049200
     30 H17A         1.1300     3.2590     1.1180 h1         1 S8F       0.049200
     31 HN18         0.0910     1.8190    -0.5160 hn         1 S8F       0.354800
     32 H19         -0.9480     1.1870     2.1310 h1         1 S8F       0.029700
     33 H19A        -1.3730     2.6500     1.2560 h1         1 S8F       0.029700
     34 H2          -4.3470    -1.6410     1.4290 ha         1 S8F       0.150000
     35 H20         -2.2840     1.2420    -0.6150 hc         1 S8F       0.053700
     36 H20A        -1.8870    -0.2050     0.2950 hc         1 S8F       0.053700
     37 H21         -3.7830     1.9980     1.2490 hc         1 S8F       0.048700
     38 H21A        -3.4120     0.5290     2.1330 hc         1 S8F       0.048700
     39 H4          -7.3530    -1.6630    -1.6180 ha         1 S8F       0.150000
     40 H5          -6.8580     0.7220    -2.1090 ha         1 S8F       0.134000
     41 H6          -5.1200     1.9180    -0.8370 ha         1 S8F       0.132000
@<TRIPOS>BOND
     1     1     2 2   
     2     1     5 1   
     3     2     3 1   
     4     2    24 1   
     5     3     4 1   
     6     3     8 1   
     7     4     5 2   
     8     4    25 1   
     9     5    26 1   
    10     6    16 ar  
    11     6    18 1   
    12     6    22 ar  
    13     7     8 ar  
    14     7    12 ar  
    15     8     9 ar  
    16     9    10 ar  
    17    10    11 ar  
    18    10    13 1   
    19    11    12 ar  
    20    11    27 1   
    21    12    28 1   
    22    13    14 1   
    23    13    29 1   
    24    13    30 1   
    25    14    15 1   
    26    14    31 1   
    27    15    17 1   
    28    15    32 1   
    29    15    33 1   
    30    16    19 ar  
    31    16    34 1   
    32    17    18 1   
    33    17    35 1   
    34    17    36 1   
    35    18    37 1   
    36    18    38 1   
    37    19    20 ar  
    38    19    23 1   
    39    20    21 ar  
    40    20    39 1   
    41    21    22 ar  
    42    21    40 1   
    43    22    41 1   
@<TRIPOS>SUBSTRUCTURE
     1 S8F         1 TEMP              0 ****  ****    0 ROOT
