@<TRIPOS>MOLECULE
S8G
   30    30     1     0     0
SMALL
No Charge or Current Charge


@<TRIPOS>ATOM
      1 N1          40.1080     1.1980    75.4210 n          1 S8G      -0.404800
      2 C4          41.1130     0.3830    76.1620 c6         1 S8G       0.096000
      3 C5          40.4050     2.4970    74.9420 c          1 S8G       0.606100
      4 C6          39.3130     3.2840    74.1870 c3         1 S8G      -0.158400
      5 C7          39.7530     4.6500    73.5810 c3         1 S8G      -0.136400
      6 C8          38.6360     5.4060    72.8300 c3         1 S8G       0.294000
      7 N           41.6840    -0.6030    78.4070 n8         1 S8G      -0.983200
      8 C           40.7260     0.2470    77.6650 c6         1 S8G       0.131500
      9 O           41.5200     2.9780    75.0990 o          1 S8G      -0.598100
     10 C1          39.2920    -0.3250    77.8060 c6         1 S8G      -0.113400
     11 C2          38.2800     0.5070    76.9760 c6         1 S8G      -0.095400
     12 C3          38.7350     0.6250    75.5010 c6         1 S8G       0.095000
     13 F           38.1660     4.6770    71.7920 f          1 S8G      -0.119667
     14 F1          39.1020     6.5760    72.3380 f          1 S8G      -0.119667
     15 F2          37.5990     5.6840    73.6520 f          1 S8G      -0.119667
     16 H1          41.1660    -0.6150    75.7050 h1         1 S8G       0.070200
     17 H2          42.1160     0.8250    76.0820 h1         1 S8G       0.070200
     18 H3          38.4640     3.4060    74.8700 hc         1 S8G       0.072200
     19 H4          38.8890     2.6200    73.4250 hc         1 S8G       0.072200
     20 H5          40.5890     4.4850    72.8890 hc         1 S8G       0.095200
     21 H6          40.1340     5.2950    74.3820 hc         1 S8G       0.095200
     22 H7          41.3920    -0.6480    79.3910 hn         1 S8G       0.394000
     23 H8          41.5840    -1.5730    78.0870 hn         1 S8G       0.394000
     24 H10         40.7520     1.2530    78.1150 h1         1 S8G       0.070700
     25 H11         38.9870    -0.3300    78.8620 hc         1 S8G       0.041700
     26 H12         39.2680    -1.3700    77.4650 hc         1 S8G       0.041700
     27 H13         38.1800     1.5110    77.4090 hc         1 S8G       0.051200
     28 H14         37.2850     0.0430    77.0230 hc         1 S8G       0.051200
     29 H15         38.0030     1.2190    74.9420 h1         1 S8G       0.052700
     30 H16         38.7440    -0.3760    75.0440 h1         1 S8G       0.052700
@<TRIPOS>BOND
     1     1     2 1   
     2     1     3 1   
     3     1    12 1   
     4     2     8 1   
     5     2    16 1   
     6     2    17 1   
     7     3     4 1   
     8     3     9 2   
     9     4     5 1   
    10     4    18 1   
    11     4    19 1   
    12     5     6 1   
    13     5    20 1   
    14     5    21 1   
    15     6    13 1   
    16     6    14 1   
    17     6    15 1   
    18     7     8 1   
    19     7    22 1   
    20     7    23 1   
    21     8    10 1   
    22     8    24 1   
    23    10    11 1   
    24    10    25 1   
    25    10    26 1   
    26    11    12 1   
    27    11    27 1   
    28    11    28 1   
    29    12    29 1   
    30    12    30 1   
@<TRIPOS>SUBSTRUCTURE
     1 S8G         1 TEMP              0 ****  ****    0 ROOT
