@<TRIPOS>MOLECULE
S8G
   30    30     1     0     0
SMALL
abcg2


@<TRIPOS>ATOM
      1 N1          40.1150     1.1330    75.3470 n          1 S8G      -0.404800
      2 C4          41.0780     0.3830    76.1330 c6         1 S8G       0.096000
      3 C5          40.4190     2.3610    74.8750 c          1 S8G       0.606100
      4 C6          39.2970     3.1400    74.2100 c3         1 S8G      -0.158400
      5 C7          39.7810     4.4950    73.7130 c3         1 S8G      -0.136400
      6 C8          38.6750     5.3080    73.0990 c3         1 S8G       0.294000
      7 N           41.6640    -0.3960    78.3540 n8         1 S8G      -0.983200
      8 C           40.6690     0.3560    77.6070 c6         1 S8G       0.131500
      9 O           41.5440     2.8380    74.9610 o          1 S8G      -0.598100
     10 C1          39.2380    -0.1700    77.7440 c6         1 S8G      -0.113400
     11 C2          38.2640     0.5770    76.8380 c6         1 S8G      -0.095400
     12 C3          38.7730     0.5760    75.4030 c6         1 S8G       0.095000
     13 F           38.1120     4.7020    72.0400 f          1 S8G      -0.119667
     14 F1          39.1170     6.5000    72.6700 f          1 S8G      -0.119667
     15 F2          37.6780     5.5590    73.9650 f          1 S8G      -0.119667
     16 H1          41.1190    -0.6420    75.7450 h1         1 S8G       0.070200
     17 H2          42.0680     0.8160    76.0210 h1         1 S8G       0.070200
     18 H3          38.4820     3.2670    74.9270 hc         1 S8G       0.072200
     19 H4          38.8890     2.5540    73.3820 hc         1 S8G       0.072200
     20 H5          40.5650     4.3740    72.9640 hc         1 S8G       0.095200
     21 H6          40.2060     5.0770    74.5320 hc         1 S8G       0.095200
     22 H7          41.4570    -0.3370    79.3440 hn         1 S8G       0.394000
     23 H8          41.5870    -1.3800    78.1200 hn         1 S8G       0.394000
     24 H10         40.6990     1.3890    77.9700 h1         1 S8G       0.070700
     25 H11         38.9190    -0.1080    78.7870 hc         1 S8G       0.041700
     26 H12         39.2330    -1.2340    77.4740 hc         1 S8G       0.041700
     27 H13         38.1450     1.6110    77.1770 hc         1 S8G       0.051200
     28 H14         37.2760     0.1150    76.8740 hc         1 S8G       0.051200
     29 H15         38.0990     1.1180    74.7450 h1         1 S8G       0.052700
     30 H16         38.8180    -0.4510    75.0280 h1         1 S8G       0.052700
@<TRIPOS>BOND
     1     1     2 1   
     2     1     3 1   
     3     1    12 1   
     4     2     8 1   
     5     2    16 1   
     6     2    17 1   
     7     3     4 1   
     8     3     9 2   
     9     4     5 1   
    10     4    18 1   
    11     4    19 1   
    12     5     6 1   
    13     5    20 1   
    14     5    21 1   
    15     6    13 1   
    16     6    14 1   
    17     6    15 1   
    18     7     8 1   
    19     7    22 1   
    20     7    23 1   
    21     8    10 1   
    22     8    24 1   
    23    10    11 1   
    24    10    25 1   
    25    10    26 1   
    26    11    12 1   
    27    11    27 1   
    28    11    28 1   
    29    12    29 1   
    30    12    30 1   
@<TRIPOS>SUBSTRUCTURE
     1 S8G         1 TEMP              0 ****  ****    0 ROOT
