@<TRIPOS>MOLECULE
S8I
   34    35     1     0     0
SMALL
No Charge or Current Charge


@<TRIPOS>ATOM
      1 C10         13.2900   -23.6870     4.7780 cc         1 S8I      -0.102750
      2 C11         13.2160   -23.5270     0.9820 cd         1 S8I      -0.102750
      3 C13         10.7420   -24.7660     1.4650 cc         1 S8I      -0.042000
      4 C14         14.0650   -23.2920     5.8530 cd         1 S8I      -0.042000
      5 C05         12.7920   -23.7300     2.3330 cd         1 S8I       0.035500
      6 C06         13.5910   -23.3220     3.4250 cc         1 S8I       0.035500
      7 C09         11.5270   -24.3680     2.5300 cd         1 S8I      -0.102750
      8 C12         14.7630   -22.5130     3.2630 cc         1 S8I      -0.102750
      9 C15         12.4370   -23.9240    -0.0890 cc         1 S8I      -0.042000
     10 C16         15.5490   -22.1060     4.3240 cd         1 S8I      -0.042000
     11 C17         10.6350   -26.3980    -1.4620 c3         1 S8I      -0.124600
     12 C18         17.1720   -23.0520     7.1080 c3         1 S8I      -0.124600
     13 N03         11.1870   -24.5350     0.1460 na         1 S8I       0.132000
     14 N04         15.2030   -22.4870     5.6380 na         1 S8I       0.132000
     15 H1          12.4480   -24.3230     5.0110 ha         1 S8I       0.179500
     16 H2          14.1700   -23.0860     0.7300 ha         1 S8I       0.179500
     17 H3           9.7770   -25.2470     1.5750 h4         1 S8I       0.202500
     18 H4          13.8510   -23.5750     6.8780 h4         1 S8I       0.202500
     19 H5          10.5150   -24.2600    -1.8300 h1         1 S8I       0.105700
     20 H6           9.2920   -24.8630    -0.7110 h1         1 S8I       0.105700
     21 H7          16.4650   -21.0740     6.5540 h1         1 S8I       0.105700
     22 H8          15.3930   -21.9340     7.6600 h1         1 S8I       0.105700
     23 H9          11.1090   -24.5440     3.5120 ha         1 S8I       0.179500
     24 H10         15.0660   -22.1580     2.2880 ha         1 S8I       0.179500
     25 H11         12.7300   -23.7980    -1.1250 h4         1 S8I       0.202500
     26 H12         16.4340   -21.4900     4.2100 h4         1 S8I       0.202500
     27 H13          9.9890   -26.6610    -2.3090 hc         1 S8I       0.081033
     28 H14         11.6790   -26.5060    -1.7810 hc         1 S8I       0.081033
     29 H15         10.4460   -27.1140    -0.6530 hc         1 S8I       0.081033
     30 H16         17.7610   -22.6910     7.9600 hc         1 S8I       0.081033
     31 H17         16.7660   -24.0380     7.3660 hc         1 S8I       0.081033
     32 H18         17.8470   -23.1710     6.2520 hc         1 S8I       0.081033
     33 C07         10.3490   -24.9530    -0.9950 c3         1 S8I       0.027600
     34 C08         16.0350   -22.0580     6.7790 c3         1 S8I       0.027600
@<TRIPOS>BOND
     1     1     4 2   
     2     1     6 1   
     3     1    15 1   
     4     2     5 1   
     5     2     9 2   
     6     2    16 1   
     7     3     7 2   
     8     3    13 1   
     9     3    17 1   
    10     4    14 1   
    11     4    18 1   
    12     5     6 2   
    13     5     7 1   
    14     6     8 1   
    15     7    23 1   
    16     8    10 2   
    17     8    24 1   
    18     9    13 1   
    19     9    25 1   
    20    10    14 1   
    21    10    26 1   
    22    11    27 1   
    23    11    28 1   
    24    11    29 1   
    25    11    33 1   
    26    12    30 1   
    27    12    31 1   
    28    12    32 1   
    29    12    34 1   
    30    13    33 1   
    31    14    34 1   
    32    19    33 1   
    33    20    33 1   
    34    21    34 1   
    35    22    34 1   
@<TRIPOS>SUBSTRUCTURE
     1 S8I         1 TEMP              0 ****  ****    0 ROOT
