@<TRIPOS>MOLECULE
S8I
   34    35     1     0     0
SMALL
abcg2


@<TRIPOS>ATOM
      1 C10         13.4710   -23.9810     4.6750 cc         1 S8I      -0.102750
      2 C11         13.3800   -23.8060     1.0210 cd         1 S8I      -0.102750
      3 C13         10.7300   -24.3900     1.3290 cc         1 S8I      -0.042000
      4 C14         14.2230   -23.5820     5.7540 cd         1 S8I      -0.042000
      5 C05         12.8130   -23.7230     2.2900 cd         1 S8I       0.035500
      6 C06         13.6190   -23.3250     3.4570 cc         1 S8I       0.035500
      7 C09         11.4630   -24.0250     2.4320 cd         1 S8I      -0.102750
      8 C12         14.5350   -22.2820     3.3740 cc         1 S8I      -0.102750
      9 C15         12.5990   -24.1850    -0.0450 cc         1 S8I      -0.042000
     10 C16         15.2530   -21.9210     4.4890 cd         1 S8I      -0.042000
     11 C17         10.5470   -26.4240    -1.1740 c3         1 S8I      -0.124600
     12 C18         17.2030   -22.9710     6.8550 c3         1 S8I      -0.124600
     13 N03         11.3000   -24.4630     0.1200 na         1 S8I       0.132000
     14 N04         15.0860   -22.5650     5.6500 na         1 S8I       0.132000
     15 H1          12.7890   -24.8110     4.7980 ha         1 S8I       0.179500
     16 H2          14.4260   -23.5970     0.8470 ha         1 S8I       0.179500
     17 H3           9.6770   -24.6220     1.3900 h4         1 S8I       0.202500
     18 H4          14.1470   -24.0650     6.7180 h4         1 S8I       0.202500
     19 H5          10.8930   -24.4190    -1.9180 h1         1 S8I       0.105700
     20 H6           9.4810   -24.5600    -0.8790 h1         1 S8I       0.105700
     21 H7          16.0920   -21.1140     6.7470 h1         1 S8I       0.105700
     22 H8          15.3060   -22.3590     7.7070 h1         1 S8I       0.105700
     23 H9          10.9590   -23.9620     3.3860 ha         1 S8I       0.179500
     24 H10         14.6830   -21.7230     2.4610 ha         1 S8I       0.179500
     25 H11         12.9950   -24.2740    -1.0460 h4         1 S8I       0.202500
     26 H12         15.9630   -21.1070     4.4760 h4         1 S8I       0.202500
     27 H13          9.9430   -26.7160    -2.0320 hc         1 S8I       0.081033
     28 H14         11.5640   -26.7760    -1.3400 hc         1 S8I       0.081033
     29 H15         10.1430   -26.9190    -0.2910 hc         1 S8I       0.081033
     30 H16         17.7760   -22.6580     7.7260 hc         1 S8I       0.081033
     31 H17         17.0160   -24.0410     6.9390 hc         1 S8I       0.081033
     32 H18         17.8070   -22.7880     5.9680 hc         1 S8I       0.081033
     33 C07         10.4970   -24.9160    -1.0360 c3         1 S8I       0.027600
     34 C08         15.9090   -22.1830     6.8190 c3         1 S8I       0.027600
@<TRIPOS>BOND
     1     1     4 2   
     2     1     6 1   
     3     1    15 1   
     4     2     5 1   
     5     2     9 2   
     6     2    16 1   
     7     3     7 2   
     8     3    13 1   
     9     3    17 1   
    10     4    14 1   
    11     4    18 1   
    12     5     6 2   
    13     5     7 1   
    14     6     8 1   
    15     7    23 1   
    16     8    10 2   
    17     8    24 1   
    18     9    13 1   
    19     9    25 1   
    20    10    14 1   
    21    10    26 1   
    22    11    27 1   
    23    11    28 1   
    24    11    29 1   
    25    11    33 1   
    26    12    30 1   
    27    12    31 1   
    28    12    32 1   
    29    12    34 1   
    30    13    33 1   
    31    14    34 1   
    32    19    33 1   
    33    20    33 1   
    34    21    34 1   
    35    22    34 1   
@<TRIPOS>SUBSTRUCTURE
     1 S8I         1 TEMP              0 ****  ****    0 ROOT
