@<TRIPOS>MOLECULE
S8J
   31    32     1     0     0
SMALL
No Charge or Current Charge


@<TRIPOS>ATOM
      1 N1          38.2780     3.6300    73.5220 nc         1 S8J      -0.389000
      2 N3          38.6100     5.1200    72.0470 na         1 S8J       0.248600
      3 C4          38.6550    -0.4030    73.2750 ca         1 S8J      -0.083000
      4 C5          39.3950     0.7660    73.5210 ca         1 S8J      -0.117000
      5 C6          39.6020     1.2240    74.8440 ca         1 S8J      -0.101600
      6 C7          39.0780     0.4600    75.9150 ca         1 S8J      -0.148000
      7 C8          40.4200     2.4700    75.1450 c          1 S8J       0.637700
      8 C10         38.3080     6.1030    70.9990 c3         1 S8J       0.077900
      9 N           40.5550     3.4350    74.1850 ns         1 S8J      -0.480400
     10 C           37.2280    -2.2180    78.8940 c3         1 S8J      -0.094100
     11 C1          37.9540    -1.1440    78.0690 c3         1 S8J       0.163600
     12 C2          38.3340    -0.7150    75.6670 ca         1 S8J       0.144100
     13 C3          38.1240    -1.1370    74.3460 ca         1 S8J      -0.126000
     14 C9          39.5860     3.9680    73.3880 cc         1 S8J       0.619900
     15 N2          37.6410     4.3600    72.6510 nd         1 S8J      -0.166800
     16 N4          39.8690     4.8950    72.5170 nd         1 S8J      -0.546800
     17 O1          41.0750     2.5660    76.1720 o          1 S8J      -0.564100
     18 H1          38.5000    -0.7420    72.2530 ha         1 S8J       0.116000
     19 H2          39.8160     1.3050    72.6750 ha         1 S8J       0.121000
     20 H3          39.2530     0.7990    76.9320 ha         1 S8J       0.132000
     21 H4          37.8950     7.0080    71.4580 h1         1 S8J       0.073367
     22 H5          39.2250     6.3560    70.4540 h1         1 S8J       0.073367
     23 H6          37.5760     5.6810    70.3000 h1         1 S8J       0.073367
     24 H7          41.3890     3.9930    74.2730 hn         1 S8J       0.340500
     25 H8          37.3210    -2.0010    79.9650 hc         1 S8J       0.047367
     26 H9          36.1620    -2.2460    78.6400 hc         1 S8J       0.047367
     27 H10         37.6600    -3.2080    78.7050 hc         1 S8J       0.047367
     28 H11         39.0150    -1.1240    78.3480 h1         1 S8J       0.037700
     29 H12         37.5130    -0.1610    78.2820 h1         1 S8J       0.037700
     30 H13         37.5520    -2.0410    74.1540 ha         1 S8J       0.128000
     31 O           37.7960    -1.4830    76.6810 os         1 S8J      -0.350100
@<TRIPOS>BOND
     1     1    14 1   
     2     1    15 2   
     3     2     8 1   
     4     2    15 1   
     5     2    16 1   
     6     3     4 ar  
     7     3    13 ar  
     8     3    18 1   
     9     4     5 ar  
    10     4    19 1   
    11     5     6 ar  
    12     5     7 1   
    13     6    12 ar  
    14     6    20 1   
    15     7     9 1   
    16     7    17 2   
    17     8    21 1   
    18     8    22 1   
    19     8    23 1   
    20     9    14 1   
    21     9    24 1   
    22    10    11 1   
    23    10    25 1   
    24    10    26 1   
    25    10    27 1   
    26    11    28 1   
    27    11    29 1   
    28    11    31 1   
    29    12    13 ar  
    30    12    31 1   
    31    13    30 1   
    32    14    16 2   
@<TRIPOS>SUBSTRUCTURE
     1 S8J         1 TEMP              0 ****  ****    0 ROOT
