@<TRIPOS>MOLECULE
S8J
   31    32     1     0     0
SMALL
bcc


@<TRIPOS>ATOM
      1 N1          38.4050     3.8440    74.1600 nc         1 S8J      -0.389000
      2 N3          38.4820     4.8290    72.3270 na         1 S8J       0.277900
      3 C4          38.6430    -0.1770    73.1840 ca         1 S8J      -0.101000
      4 C5          39.5230     0.8650    73.4450 ca         1 S8J      -0.135000
      5 C6          39.8000     1.1980    74.7640 ca         1 S8J      -0.101600
      6 C7          39.2190     0.4940    75.8170 ca         1 S8J      -0.166000
      7 C8          40.8030     2.2490    75.0980 c          1 S8J       0.704700
      8 C10         38.0390     5.5720    71.1680 c3         1 S8J       0.048600
      9 N           40.7630     3.4040    74.3670 ns         1 S8J      -0.547400
     10 C           37.0990    -1.9110    78.6910 c3         1 S8J      -0.094100
     11 C1          37.9390    -0.9730    77.8590 c3         1 S8J       0.140400
     12 C2          38.3170    -0.5300    75.5460 ca         1 S8J       0.144100
     13 C3          38.0360    -0.8650    74.2180 ca         1 S8J      -0.144000
     14 C9          39.6600     3.8970    73.6990 cc         1 S8J       0.619900
     15 N2          37.6770     4.4290    73.2640 nd         1 S8J      -0.166800
     16 N4          39.7360     4.5170    72.5400 nd         1 S8J      -0.546800
     17 O1          41.6520     2.0760    75.9480 o          1 S8J      -0.564100
     18 H1          38.4300    -0.4570    72.1620 ha         1 S8J       0.134000
     19 H2          39.9970     1.3870    72.6250 ha         1 S8J       0.139000
     20 H3          39.4690     0.7700    76.8320 ha         1 S8J       0.150000
     21 H4          36.9550     5.5660    71.1590 h1         1 S8J       0.073367
     22 H5          38.4030     6.5950    71.2280 h1         1 S8J       0.073367
     23 H6          38.4190     5.0970    70.2690 h1         1 S8J       0.073367
     24 H7          41.5370     4.0430    74.4990 hn         1 S8J       0.340500
     25 H8          37.2840    -1.7200    79.7470 hc         1 S8J       0.047367
     26 H9          36.0350    -1.7640    78.5060 hc         1 S8J       0.047367
     27 H10         37.3470    -2.9530    78.4900 hc         1 S8J       0.047367
     28 H11         39.0030    -1.1160    78.0770 h1         1 S8J       0.037700
     29 H12         37.6900     0.0680    78.0890 h1         1 S8J       0.037700
     30 H13         37.3440    -1.6710    74.0100 ha         1 S8J       0.146000
     31 O           37.6810    -1.2470    76.4870 os         1 S8J      -0.326900
@<TRIPOS>BOND
     1     1    14 1   
     2     1    15 2   
     3     2     8 1   
     4     2    15 1   
     5     2    16 1   
     6     3     4 ar  
     7     3    13 ar  
     8     3    18 1   
     9     4     5 ar  
    10     4    19 1   
    11     5     6 ar  
    12     5     7 1   
    13     6    12 ar  
    14     6    20 1   
    15     7     9 1   
    16     7    17 2   
    17     8    21 1   
    18     8    22 1   
    19     8    23 1   
    20     9    14 1   
    21     9    24 1   
    22    10    11 1   
    23    10    25 1   
    24    10    26 1   
    25    10    27 1   
    26    11    28 1   
    27    11    29 1   
    28    11    31 1   
    29    12    13 ar  
    30    12    31 1   
    31    13    30 1   
    32    14    16 2   
@<TRIPOS>SUBSTRUCTURE
     1 S8J         1 TEMP              0 ****  ****    0 ROOT
