@<TRIPOS>MOLECULE
S8K
   71    74     1     0     0
SMALL
bcc


@<TRIPOS>ATOM
      1 C10         24.4740    40.9320    42.7090 c6         1 S8K      -0.091400
      2 C13         22.2120    42.7260    40.3240 c3         1 S8K       0.168800
      3 C15         20.2860    43.1930    38.9290 c3         1 S8K       0.167800
      4 C20         16.8560    40.1400    41.0320 cc         1 S8K      -0.111200
      5 C21         15.8520    39.4160    41.5720 cd         1 S8K      -0.138100
      6 C24         14.0020    42.1480    40.0330 ca         1 S8K      -0.182000
      7 C26         15.9660    43.3200    39.1760 ca         1 S8K      -0.255000
      8 C01         20.2640    36.4500    40.9350 c3         1 S8K      -0.107767
      9 C02         21.4930    36.9880    40.2110 c3         1 S8K       0.200800
     10 C03         21.1620    37.4450    38.7950 c3         1 S8K      -0.107767
     11 C04         22.5710    35.9130    40.1640 c3         1 S8K      -0.107767
     12 C06         21.5220    39.2040    41.2430 c          1 S8K       0.769100
     13 C09         23.7130    39.6790    42.2850 c6         1 S8K       0.118000
     14 C11         24.1780    42.0810    41.7530 c6         1 S8K      -0.072400
     15 C12         22.6780    42.4430    41.7490 c6         1 S8K      -0.076700
     16 C16         18.7950    43.4390    38.9250 c3         1 S8K       0.141400
     17 C18         16.8200    42.3510    39.6790 ca         1 S8K       0.195100
     18 C19         16.2620    41.2700    40.3790 ca         1 S8K      -0.120800
     19 C23         14.8740    41.1860    40.5440 ca         1 S8K       0.004800
     20 C25         14.5820    43.2050    39.3590 ca         1 S8K      -0.069000
     21 C30         13.2510    40.8520    43.4340 ca         1 S8K      -0.298500
     22 C31         14.0460    40.5860    44.5430 ca         1 S8K      -0.025000
     23 C32         14.1020    41.5220    45.5620 ca         1 S8K      -0.147500
     24 C33         13.3710    42.7000    45.4690 ca         1 S8K      -0.069000
     25 C34         12.5760    42.9470    44.3580 ca         1 S8K      -0.147500
     26 C35         12.5080    42.0200    43.3290 ca         1 S8K      -0.025000
     27 C36         21.8640    41.3200    42.3920 c6         1 S8K       0.115000
     28 N08         22.3340    40.0230    41.9440 n          1 S8K      -0.478800
     29 N14         20.8260    43.1410    40.2700 n7         1 S8K      -0.800200
     30 N22         14.6310    40.0180    41.2650 na         1 S8K      -0.198900
     31 O05         22.1270    38.0490    40.9710 os         1 S8K      -0.456900
     32 O07         20.3840    39.4830    40.9080 o          1 S8K      -0.597000
     33 O17         18.1550    42.3460    39.5640 os         1 S8K      -0.285900
     34 O28         13.3950    38.3440    42.6470 o          1 S8K      -0.596800
     35 O29         12.1090    39.9790    41.2360 o          1 S8K      -0.596800
     36 S27         13.2170    39.6790    42.1160 sy         1 S8K       1.322300
     37 H1          25.5390    40.6970    42.7110 hc         1 S8K       0.047200
     38 H2          24.2220    41.2140    43.7340 hc         1 S8K       0.047200
     39 H3          22.3150    41.8070    39.7360 h1         1 S8K       0.030700
     40 H4          22.8980    43.4550    39.8630 h1         1 S8K       0.030700
     41 H5          20.4920    42.2400    38.4340 h1         1 S8K       0.041200
     42 H6          20.7450    43.9700    38.2970 h1         1 S8K       0.041200
     43 H7          17.9040    39.8920    41.0820 ha         1 S8K       0.191000
     44 H8          15.8870    38.5010    42.1390 h4         1 S8K       0.185000
     45 H9          12.9300    42.0840    40.1360 ha         1 S8K       0.155000
     46 H10         16.3450    44.1750    38.6330 ha         1 S8K       0.131000
     47 H11         20.5050    36.1810    41.9650 hc         1 S8K       0.048367
     48 H12         19.4390    37.1580    40.9440 hc         1 S8K       0.048367
     49 H13         19.9230    35.5450    40.4300 hc         1 S8K       0.048367
     50 H14         22.0370    37.8860    38.3140 hc         1 S8K       0.048367
     51 H15         20.8620    36.5800    38.2020 hc         1 S8K       0.048367
     52 H16         20.3470    38.1640    38.7670 hc         1 S8K       0.048367
     53 H17         22.8470    35.5830    41.1680 hc         1 S8K       0.048367
     54 H18         22.2060    35.0440    39.6160 hc         1 S8K       0.048367
     55 H19         23.4700    36.2720    39.6610 hc         1 S8K       0.048367
     56 H20         23.7450    38.9270    43.0800 h1         1 S8K       0.045200
     57 H21         24.2100    39.2510    41.4140 h1         1 S8K       0.045200
     58 H22         24.4860    41.7770    40.7460 hc         1 S8K       0.042200
     59 H23         24.7810    42.9530    42.0050 hc         1 S8K       0.042200
     60 H24         22.5220    43.3430    42.3540 hc         1 S8K       0.049700
     61 H25         18.4480    43.5380    37.8910 h1         1 S8K       0.033200
     62 H26         18.5560    44.3760    39.4430 h1         1 S8K       0.033200
     63 H27         13.9440    43.9760    38.9470 ha         1 S8K       0.128000
     64 H28         14.6120    39.6670    44.6210 ha         1 S8K       0.154000
     65 H29         14.7150    41.3280    46.4310 ha         1 S8K       0.138000
     66 H30         13.4190    43.4270    46.2690 ha         1 S8K       0.135000
     67 H31         12.0020    43.8610    44.2910 ha         1 S8K       0.138000
     68 H32         11.8800    42.2120    42.4700 ha         1 S8K       0.154000
     69 H33         21.9430    41.3730    43.4820 h1         1 S8K       0.069700
     70 H34         20.8130    41.4300    42.1450 h1         1 S8K       0.069700
     71 H35         20.7270    44.0480    40.7100 hn         1 S8K       0.348800
@<TRIPOS>BOND
     1     1    13 1   
     2     1    14 1   
     3     1    37 1   
     4     1    38 1   
     5     2    15 1   
     6     2    29 1   
     7     2    39 1   
     8     2    40 1   
     9     3    16 1   
    10     3    29 1   
    11     3    41 1   
    12     3    42 1   
    13     4     5 2   
    14     4    18 1   
    15     4    43 1   
    16     5    30 1   
    17     5    44 1   
    18     6    19 ar  
    19     6    20 ar  
    20     6    45 1   
    21     7    17 ar  
    22     7    20 ar  
    23     7    46 1   
    24     8     9 1   
    25     8    47 1   
    26     8    48 1   
    27     8    49 1   
    28     9    10 1   
    29     9    11 1   
    30     9    31 1   
    31    10    50 1   
    32    10    51 1   
    33    10    52 1   
    34    11    53 1   
    35    11    54 1   
    36    11    55 1   
    37    12    28 1   
    38    12    31 1   
    39    12    32 2   
    40    13    28 1   
    41    13    56 1   
    42    13    57 1   
    43    14    15 1   
    44    14    58 1   
    45    14    59 1   
    46    15    27 1   
    47    15    60 1   
    48    16    33 1   
    49    16    61 1   
    50    16    62 1   
    51    17    18 ar  
    52    17    33 1   
    53    18    19 ar  
    54    19    30 1   
    55    20    63 1   
    56    21    22 ar  
    57    21    26 ar  
    58    21    36 1   
    59    22    23 ar  
    60    22    64 1   
    61    23    24 ar  
    62    23    65 1   
    63    24    25 ar  
    64    24    66 1   
    65    25    26 ar  
    66    25    67 1   
    67    26    68 1   
    68    27    28 1   
    69    27    69 1   
    70    27    70 1   
    71    29    71 1   
    72    30    36 1   
    73    34    36 2   
    74    35    36 2   
@<TRIPOS>SUBSTRUCTURE
     1 S8K         1 TEMP              0 ****  ****    0 ROOT
