@<TRIPOS>MOLECULE
S8K
   71    74     1     0     0
SMALL
No Charge or Current Charge


@<TRIPOS>ATOM
      1 C10         24.7570    40.9180    42.1220 c6         1 S8K      -0.091400
      2 C13         22.3880    43.0110    39.8830 c3         1 S8K       0.168800
      3 C15         20.3720    43.9800    38.7490 c3         1 S8K       0.167800
      4 C20         16.9240    40.6360    40.5110 cc         1 S8K      -0.161200
      5 C21         15.9310    39.8000    41.0020 cd         1 S8K      -0.188100
      6 C24         14.1000    42.8550    40.3230 ca         1 S8K      -0.164000
      7 C26         15.9970    44.1730    39.5000 ca         1 S8K      -0.237000
      8 C01         20.5310    36.1130    42.0690 c3         1 S8K      -0.107767
      9 C02         21.5280    36.4180    40.9200 c3         1 S8K       0.224000
     10 C03         20.8490    36.4920    39.5280 c3         1 S8K      -0.107767
     11 C04         22.6490    35.3550    40.9020 c3         1 S8K      -0.107767
     12 C06         21.5740    38.8680    41.2910 c          1 S8K       0.653100
     13 C09         23.9230    39.6480    41.8310 c6         1 S8K       0.118000
     14 C11         24.4040    42.0060    41.0930 c6         1 S8K      -0.072400
     15 C12         22.9170    42.4390    41.2290 c6         1 S8K      -0.076700
     16 C16         18.8670    44.2990    38.9530 c3         1 S8K       0.164600
     17 C18         16.8580    43.0680    39.6940 ca         1 S8K       0.195100
     18 C19         16.3000    41.8840    40.1990 ca         1 S8K      -0.120800
     19 C23         14.9700    41.7650    40.5030 ca         1 S8K       0.004800
     20 C25         14.6230    44.0630    39.8160 ca         1 S8K      -0.051000
     21 C30         12.9550    40.5490    43.2020 ca         1 S8K      -0.298500
     22 C31         13.6870    40.0290    44.2900 ca         1 S8K      -0.007000
     23 C32         13.5490    40.5990    45.5670 ca         1 S8K      -0.129500
     24 C33         12.6850    41.6890    45.7650 ca         1 S8K      -0.051000
     25 C34         11.9580    42.2110    44.6820 ca         1 S8K      -0.129500
     26 C35         12.0900    41.6470    43.4020 ca         1 S8K      -0.007000
     27 C36         21.9980    41.3050    41.7960 c6         1 S8K       0.115000
     28 N08         22.4790    39.9130    41.5560 n          1 S8K      -0.411800
     29 N14         21.0410    43.5940    40.0160 n7         1 S8K      -0.855400
     30 N22         14.6830    40.4890    40.9960 na         1 S8K      -0.198900
     31 O05         22.2210    37.6580    41.1920 os         1 S8K      -0.480100
     32 O07         20.3710    39.0440    41.1670 o          1 S8K      -0.548000
     33 O17         18.2070    43.1030    39.4120 os         1 S8K      -0.309100
     34 O28         13.3780    38.3710    41.7140 o          1 S8K      -0.526000
     35 O29         12.1030    40.3710    40.6920 o          1 S8K      -0.526000
     36 S27         13.1530    39.8170    41.5590 sy         1 S8K       1.180700
     37 H1          25.8280    40.6790    42.0770 hc         1 S8K       0.047200
     38 H2          24.5560    41.2800    43.1400 hc         1 S8K       0.047200
     39 H3          22.3760    42.1940    39.1480 h1         1 S8K       0.030700
     40 H4          23.0920    43.7730    39.5200 h1         1 S8K       0.030700
     41 H5          20.4470    43.1660    38.0150 h1         1 S8K       0.041200
     42 H6          20.8650    44.8590    38.3110 h1         1 S8K       0.041200
     43 H7          17.9780    40.3830    40.4030 ha         1 S8K       0.241000
     44 H8          16.0170    38.7730    41.3510 h4         1 S8K       0.235000
     45 H9          13.0440    42.7850    40.5660 ha         1 S8K       0.137000
     46 H10         16.3700    45.1160    39.1110 ha         1 S8K       0.113000
     47 H11         21.0110    36.2410    43.0460 hc         1 S8K       0.048367
     48 H12         19.6480    36.7610    42.0290 hc         1 S8K       0.048367
     49 H13         20.1750    35.0790    42.0000 hc         1 S8K       0.048367
     50 H14         21.5470    36.8780    38.7750 hc         1 S8K       0.048367
     51 H15         20.5250    35.4950    39.2080 hc         1 S8K       0.048367
     52 H16         19.9610    37.1330    39.5370 hc         1 S8K       0.048367
     53 H17         23.1690    35.3210    41.8670 hc         1 S8K       0.048367
     54 H18         22.2380    34.3580    40.7020 hc         1 S8K       0.048367
     55 H19         23.3870    35.5810    40.1240 hc         1 S8K       0.048367
     56 H20         24.0130    38.9540    42.6780 h1         1 S8K       0.045200
     57 H21         24.3520    39.1470    40.9510 h1         1 S8K       0.045200
     58 H22         24.5980    41.6170    40.0840 hc         1 S8K       0.042200
     59 H23         25.0610    42.8780    41.2200 hc         1 S8K       0.042200
     60 H24         22.8760    43.2740    41.9420 hc         1 S8K       0.049700
     61 H25         18.4400    44.6310    37.9990 h1         1 S8K       0.033200
     62 H26         18.7590    45.1100    39.6850 h1         1 S8K       0.033200
     63 H27         13.9640    44.9160    39.6690 ha         1 S8K       0.110000
     64 H28         14.3640    39.1860    44.1510 ha         1 S8K       0.136000
     65 H29         14.1150    40.1960    46.4040 ha         1 S8K       0.120000
     66 H30         12.5810    42.1290    46.7540 ha         1 S8K       0.117000
     67 H31         11.2900    43.0560    44.8350 ha         1 S8K       0.120000
     68 H32         11.5180    42.0670    42.5750 ha         1 S8K       0.136000
     69 H33         21.9270    41.4380    42.8850 h1         1 S8K       0.069700
     70 H34         20.9750    41.4260    41.4130 h1         1 S8K       0.069700
     71 H35         21.0870    44.4120    40.6340 hn         1 S8K       0.404000
@<TRIPOS>BOND
     1     1    13 1   
     2     1    14 1   
     3     1    37 1   
     4     1    38 1   
     5     2    15 1   
     6     2    29 1   
     7     2    39 1   
     8     2    40 1   
     9     3    16 1   
    10     3    29 1   
    11     3    41 1   
    12     3    42 1   
    13     4     5 2   
    14     4    18 1   
    15     4    43 1   
    16     5    30 1   
    17     5    44 1   
    18     6    19 ar  
    19     6    20 ar  
    20     6    45 1   
    21     7    17 ar  
    22     7    20 ar  
    23     7    46 1   
    24     8     9 1   
    25     8    47 1   
    26     8    48 1   
    27     8    49 1   
    28     9    10 1   
    29     9    11 1   
    30     9    31 1   
    31    10    50 1   
    32    10    51 1   
    33    10    52 1   
    34    11    53 1   
    35    11    54 1   
    36    11    55 1   
    37    12    28 1   
    38    12    31 1   
    39    12    32 2   
    40    13    28 1   
    41    13    56 1   
    42    13    57 1   
    43    14    15 1   
    44    14    58 1   
    45    14    59 1   
    46    15    27 1   
    47    15    60 1   
    48    16    33 1   
    49    16    61 1   
    50    16    62 1   
    51    17    18 ar  
    52    17    33 1   
    53    18    19 ar  
    54    19    30 1   
    55    20    63 1   
    56    21    22 ar  
    57    21    26 ar  
    58    21    36 1   
    59    22    23 ar  
    60    22    64 1   
    61    23    24 ar  
    62    23    65 1   
    63    24    25 ar  
    64    24    66 1   
    65    25    26 ar  
    66    25    67 1   
    67    26    68 1   
    68    27    28 1   
    69    27    69 1   
    70    27    70 1   
    71    29    71 1   
    72    30    36 1   
    73    34    36 2   
    74    35    36 2   
@<TRIPOS>SUBSTRUCTURE
     1 S8K         1 TEMP              0 ****  ****    0 ROOT
