@<TRIPOS>MOLECULE
S8N
  100   104     1     0     0
SMALL
No Charge or Current Charge


@<TRIPOS>ATOM
      1 CAJ         -1.3760    18.9250   -15.7530 c3         1 S8N       0.145900
      2 OAH         -1.6660    20.1790   -15.1090 os         1 S8N      -0.330100
      3 CAB         -1.1120    21.3780   -15.5280 ca         1 S8N       0.114100
      4 CAC         -0.2290    21.4450   -16.6310 ca         1 S8N      -0.166000
      5 CAA         -1.4450    22.5600   -14.8240 ca         1 S8N       0.112100
      6 OAG         -2.3110    22.4710   -13.7450 os         1 S8N      -0.329100
      7 CAI         -2.7030    23.6200   -12.9720 c3         1 S8N       0.145900
      8 CAF         -0.8950    23.7950   -15.2360 ca         1 S8N      -0.166000
      9 CAE         -0.0190    23.8480   -16.3320 ca         1 S8N      -0.106000
     10 CAD          0.3270    22.6760   -17.0300 ca         1 S8N      -0.084300
     11 CAK          1.2910    22.7510   -18.2130 c3         1 S8N      -0.025100
     12 CAL          2.4970    21.7840   -18.1090 c3         1 S8N      -0.069400
     13 CAM          3.3350    21.9330   -16.8170 c3         1 S8N       0.213600
     14 OAO          4.3310    20.8910   -16.8740 os         1 S8N      -0.437100
     15 C            5.2180    20.7180   -15.8400 c          1 S8N       0.583100
     16 O            5.4630    21.5860   -15.0110 o          1 S8N      -0.486000
     17 CA           6.1730    19.5180   -16.0960 c6         1 S8N       0.048700
     18 CB           5.5000    18.1700   -15.7360 c6         1 S8N      -0.073400
     19 CBC          5.4910    17.9600   -14.2070 c6         1 S8N      -0.078400
     20 CBD          6.9310    18.0540   -13.6560 c6         1 S8N      -0.094400
     21 CBE          7.6180    19.3880   -14.0450 c6         1 S8N       0.094000
     22 N            7.5490    19.6730   -15.5120 n          1 S8N      -0.396800
     23 CBG          8.4440    20.5650   -16.1560 c          1 S8N       0.600100
     24 OBI          8.1050    21.1040   -17.2080 o          1 S8N      -0.609100
     25 CBH          9.8890    20.8020   -15.5970 c3         1 S8N       0.041700
     26 CBL         10.9250    19.6650   -15.9450 c6         1 S8N      -0.070700
     27 CBM         10.4880    18.2360   -15.4980 c6         1 S8N      -0.071900
     28 CBN         11.5200    17.1600   -15.9140 c6         1 S8N      -0.071900
     29 CBO         12.9220    17.4830   -15.3480 c6         1 S8N      -0.075400
     30 CBP         13.3810    18.8910   -15.7900 c6         1 S8N      -0.071900
     31 CBQ         12.3500    19.9750   -15.3870 c6         1 S8N      -0.071900
     32 NBJ         10.3330    22.0870   -16.1710 ns         1 S8N      -0.494900
     33 CBK         10.9560    23.1280   -15.5220 c          1 S8N       0.616100
     34 OBT         11.2680    23.0630   -14.3390 o          1 S8N      -0.597100
     35 CBR         11.1450    24.4030   -16.4210 c3         1 S8N       0.050400
     36 CBV         11.0410    25.7150   -15.5840 c3         1 S8N      -0.100100
     37 CBW         12.6230    24.3450   -16.9200 c3         1 S8N      -0.100100
     38 NBS         10.1330    24.4570   -17.5670 n          1 S8N      -0.420800
     39 CBU         10.6120    24.1850   -18.9560 c3         1 S8N       0.084300
     40 CAW          8.7230    24.5160   -17.2950 c          1 S8N       0.558100
     41 OAX          8.3110    24.4420   -16.1440 o          1 S8N      -0.560100
     42 CAV          7.7380    24.7880   -18.4750 c3         1 S8N       0.086600
     43 OAU          6.5830    25.5730   -18.0860 os         1 S8N      -0.326100
     44 CAQ          5.5460    25.0800   -17.3230 ca         1 S8N       0.128100
     45 CAP          5.0470    23.7650   -17.4660 ca         1 S8N      -0.161000
     46 CAN          3.9490    23.3370   -16.6820 ca         1 S8N      -0.076300
     47 CAT          3.3790    24.2310   -15.7520 ca         1 S8N      -0.118000
     48 CAS          3.8660    25.5390   -15.6230 ca         1 S8N      -0.085000
     49 CAR          4.9390    25.9640   -16.4180 ca         1 S8N      -0.126000
     50 H1          -1.9160    18.1100   -15.2570 h1         1 S8N       0.040367
     51 H2          -1.6850    18.9470   -16.8060 h1         1 S8N       0.040367
     52 H3          -0.3020    18.7010   -15.7040 h1         1 S8N       0.040367
     53 H4           0.0300    20.5500   -17.1870 ha         1 S8N       0.117000
     54 H5          -3.3890    23.3210   -12.1700 h1         1 S8N       0.040367
     55 H6          -1.8290    24.0970   -12.5120 h1         1 S8N       0.040367
     56 H7          -3.2170    24.3570   -13.6020 h1         1 S8N       0.040367
     57 H8          -1.1330    24.7200   -14.7200 ha         1 S8N       0.119000
     58 H9           0.3970    24.8060   -16.6350 ha         1 S8N       0.115000
     59 H10          0.7460    22.5280   -19.1390 hc         1 S8N       0.050700
     60 H11          1.6720    23.7730   -18.3330 hc         1 S8N       0.050700
     61 H12          2.1370    20.7510   -18.1800 hc         1 S8N       0.055200
     62 H13          3.1480    21.9430   -18.9770 hc         1 S8N       0.055200
     63 H14          2.6760    21.7520   -15.9560 h1         1 S8N       0.082700
     64 H15          6.2750    19.5000   -17.1910 h1         1 S8N       0.101700
     65 H16          4.4760    18.1310   -16.1340 hc         1 S8N       0.057700
     66 H17          6.0510    17.3490   -16.2140 hc         1 S8N       0.057700
     67 H18          4.8530    18.7130   -13.7240 hc         1 S8N       0.051200
     68 H19          5.0590    16.9790   -13.9640 hc         1 S8N       0.051200
     69 H20          7.5260    17.2160   -14.0450 hc         1 S8N       0.051200
     70 H21          6.9220    17.9470   -12.5630 hc         1 S8N       0.051200
     71 H22          8.6560    19.3560   -13.6940 h1         1 S8N       0.070700
     72 H23          7.1310    20.2100   -13.5020 h1         1 S8N       0.070700
     73 H24          9.8220    20.9110   -14.5080 h1         1 S8N       0.093700
     74 H25         10.9900    19.6570   -17.0430 hc         1 S8N       0.065700
     75 H26          9.5190    17.9710   -15.9390 hc         1 S8N       0.043200
     76 H27         10.3670    18.2030   -14.4070 hc         1 S8N       0.043200
     77 H28         11.5680    17.0960   -17.0110 hc         1 S8N       0.038950
     78 H29         11.1940    16.1740   -15.5580 hc         1 S8N       0.038950
     79 H30         13.6450    16.7300   -15.6890 hc         1 S8N       0.039200
     80 H31         12.9020    17.4250   -14.2510 hc         1 S8N       0.039200
     81 H32         14.3570    19.1210   -15.3410 hc         1 S8N       0.038950
     82 H33         13.5280    18.9080   -16.8790 hc         1 S8N       0.038950
     83 H34         12.3100    20.0580   -14.2920 hc         1 S8N       0.043200
     84 H35         12.7090    20.9430   -15.7590 hc         1 S8N       0.043200
     85 H36         10.0510    22.2840   -17.1240 hn         1 S8N       0.325500
     86 H37         10.0920    25.7890   -15.0440 hc         1 S8N       0.053200
     87 H38         11.8370    25.7700   -14.8310 hc         1 S8N       0.053200
     88 H39         11.1310    26.5950   -16.2320 hc         1 S8N       0.053200
     89 H40         13.3220    24.4060   -16.0770 hc         1 S8N       0.053200
     90 H41         12.8410    23.4020   -17.4360 hc         1 S8N       0.053200
     91 H42         12.8500    25.1780   -17.5970 hc         1 S8N       0.053200
     92 H43          9.7950    23.8950   -19.6250 h1         1 S8N       0.042367
     93 H44         11.1020    25.0800   -19.3590 h1         1 S8N       0.042367
     94 H45         11.3210    23.3490   -18.9640 h1         1 S8N       0.042367
     95 H46          8.2870    25.3520   -19.2360 h1         1 S8N       0.070200
     96 H47          7.4530    23.8270   -18.9190 h1         1 S8N       0.070200
     97 H48          5.4880    23.0830   -18.1870 ha         1 S8N       0.121000
     98 H49          2.5430    23.9140   -15.1320 ha         1 S8N       0.126000
     99 H50          3.4090    26.2240   -14.9120 ha         1 S8N       0.117000
    100 H51          5.3140    26.9800   -16.3240 ha         1 S8N       0.128000
@<TRIPOS>BOND
     1     1     2 1   
     2     1    50 1   
     3     1    51 1   
     4     1    52 1   
     5     2     3 1   
     6     3     4 ar  
     7     3     5 ar  
     8     4    10 ar  
     9     4    53 1   
    10     5     6 1   
    11     5     8 ar  
    12     6     7 1   
    13     7    54 1   
    14     7    55 1   
    15     7    56 1   
    16     8     9 ar  
    17     8    57 1   
    18     9    10 ar  
    19     9    58 1   
    20    10    11 1   
    21    11    12 1   
    22    11    59 1   
    23    11    60 1   
    24    12    13 1   
    25    12    61 1   
    26    12    62 1   
    27    13    14 1   
    28    13    46 1   
    29    13    63 1   
    30    14    15 1   
    31    15    16 2   
    32    15    17 1   
    33    17    18 1   
    34    17    22 1   
    35    17    64 1   
    36    18    19 1   
    37    18    65 1   
    38    18    66 1   
    39    19    20 1   
    40    19    67 1   
    41    19    68 1   
    42    20    21 1   
    43    20    69 1   
    44    20    70 1   
    45    21    22 1   
    46    21    71 1   
    47    21    72 1   
    48    22    23 1   
    49    23    24 2   
    50    23    25 1   
    51    25    26 1   
    52    25    32 1   
    53    25    73 1   
    54    26    27 1   
    55    26    31 1   
    56    26    74 1   
    57    27    28 1   
    58    27    75 1   
    59    27    76 1   
    60    28    29 1   
    61    28    77 1   
    62    28    78 1   
    63    29    30 1   
    64    29    79 1   
    65    29    80 1   
    66    30    31 1   
    67    30    81 1   
    68    30    82 1   
    69    31    83 1   
    70    31    84 1   
    71    32    33 1   
    72    32    85 1   
    73    33    34 2   
    74    33    35 1   
    75    35    36 1   
    76    35    37 1   
    77    35    38 1   
    78    36    86 1   
    79    36    87 1   
    80    36    88 1   
    81    37    89 1   
    82    37    90 1   
    83    37    91 1   
    84    38    39 1   
    85    38    40 1   
    86    39    92 1   
    87    39    93 1   
    88    39    94 1   
    89    40    41 2   
    90    40    42 1   
    91    42    43 1   
    92    42    95 1   
    93    42    96 1   
    94    43    44 1   
    95    44    45 ar  
    96    44    49 ar  
    97    45    46 ar  
    98    45    97 1   
    99    46    47 ar  
   100    47    48 ar  
   101    47    98 1   
   102    48    49 ar  
   103    48    99 1   
   104    49   100 1   
@<TRIPOS>SUBSTRUCTURE
     1 S8N         1 TEMP              0 ****  ****    0 ROOT
