@<TRIPOS>MOLECULE
S8N
  100   104     1     0     0
SMALL
abcg2


@<TRIPOS>ATOM
      1 CAJ         -0.4130    19.1650   -18.6640 c3         1 S8N       0.145900
      2 OAH         -1.0820    19.9520   -17.6820 os         1 S8N      -0.330100
      3 CAB         -0.5080    21.1290   -17.3070 ca         1 S8N       0.114100
      4 CAC          0.6880    21.6160   -17.8130 ca         1 S8N      -0.166000
      5 CAA         -1.2110    21.8770   -16.3340 ca         1 S8N       0.112100
      6 OAG         -2.3720    21.3270   -15.8810 os         1 S8N      -0.329100
      7 CAI         -3.1020    22.0420   -14.8870 c3         1 S8N       0.145900
      8 CAF         -0.6920    23.0910   -15.9130 ca         1 S8N      -0.166000
      9 CAE          0.5150    23.5670   -16.4350 ca         1 S8N      -0.106000
     10 CAD          1.2190    22.8380   -17.3790 ca         1 S8N      -0.084300
     11 CAK          2.5540    23.3050   -17.9060 c3         1 S8N      -0.025100
     12 CAL          3.7220    22.4200   -17.4470 c3         1 S8N      -0.069400
     13 CAM          3.8860    22.4110   -15.9350 c3         1 S8N       0.213600
     14 OAO          4.9180    21.4150   -15.6470 os         1 S8N      -0.437100
     15 C            4.8090    20.7120   -14.5190 c          1 S8N       0.583100
     16 O            3.9040    20.8270   -13.7240 o          1 S8N      -0.486000
     17 CA           5.9350    19.6860   -14.4010 c6         1 S8N       0.048700
     18 CB           5.9680    18.9890   -13.0370 c6         1 S8N      -0.073400
     19 CBC          6.5230    19.8860   -11.9300 c6         1 S8N      -0.078400
     20 CBD          7.8800    20.4650   -12.3290 c6         1 S8N      -0.094400
     21 CBE          7.7790    21.1600   -13.6800 c6         1 S8N       0.094000
     22 N            7.2470    20.2540   -14.7010 n          1 S8N      -0.396800
     23 CBG          7.8660    19.9260   -15.8600 c          1 S8N       0.600100
     24 OBI          7.2730    19.3750   -16.7870 o          1 S8N      -0.609100
     25 CBH          9.3790    20.1940   -15.9580 c3         1 S8N       0.041700
     26 CBL         10.0680    19.0580   -16.7340 c6         1 S8N      -0.070700
     27 CBM          9.8710    17.7220   -16.0040 c6         1 S8N      -0.071900
     28 CBN         10.5480    16.5650   -16.7410 c6         1 S8N      -0.071900
     29 CBO         12.0350    16.8390   -16.9700 c6         1 S8N      -0.075400
     30 CBP         12.2410    18.1750   -17.6840 c6         1 S8N      -0.071900
     31 CBQ         11.5640    19.3240   -16.9340 c6         1 S8N      -0.071900
     32 NBJ          9.6110    21.5160   -16.5230 ns         1 S8N      -0.494900
     33 CBK         10.5340    22.3630   -16.0180 c          1 S8N       0.616100
     34 OBT         11.1710    22.1200   -14.9980 o          1 S8N      -0.597100
     35 CBR         10.8560    23.6020   -16.8860 c3         1 S8N       0.050400
     36 CBV         11.7190    24.5990   -16.1080 c3         1 S8N      -0.100100
     37 CBW         11.6640    23.0770   -18.0830 c3         1 S8N      -0.100100
     38 NBS          9.6050    24.2800   -17.3320 n          1 S8N      -0.420800
     39 CBU          9.5550    24.8440   -18.6810 c3         1 S8N       0.084300
     40 CAW          8.7540    24.7040   -16.3630 c          1 S8N       0.558100
     41 OAX          8.8150    24.3020   -15.2060 o          1 S8N      -0.560100
     42 CAV          7.7290    25.7760   -16.7520 c3         1 S8N       0.086600
     43 OAU          6.9980    26.2350   -15.6340 os         1 S8N      -0.326100
     44 CAQ          5.8780    25.5560   -15.2480 ca         1 S8N       0.128100
     45 CAP          5.4890    24.3310   -15.7750 ca         1 S8N      -0.161000
     46 CAN          4.3050    23.7320   -15.3430 ca         1 S8N      -0.076300
     47 CAT          3.5260    24.3490   -14.3730 ca         1 S8N      -0.118000
     48 CAS          3.9280    25.5720   -13.8390 ca         1 S8N      -0.085000
     49 CAR          5.0960    26.1780   -14.2710 ca         1 S8N      -0.126000
     50 H1          -1.0350    18.2860   -18.8140 h1         1 S8N       0.040367
     51 H2          -0.3140    19.7100   -19.6050 h1         1 S8N       0.040367
     52 H3           0.5770    18.8590   -18.3160 h1         1 S8N       0.040367
     53 H4           1.2280    21.0420   -18.5530 ha         1 S8N       0.117000
     54 H5          -3.9740    21.4330   -14.6620 h1         1 S8N       0.040367
     55 H6          -2.5050    22.1780   -13.9820 h1         1 S8N       0.040367
     56 H7          -3.4230    23.0190   -15.2590 h1         1 S8N       0.040367
     57 H8          -1.2170    23.6780   -15.1740 ha         1 S8N       0.119000
     58 H9           0.9050    24.5130   -16.0830 ha         1 S8N       0.115000
     59 H10          2.5440    23.3060   -18.9990 hc         1 S8N       0.050700
     60 H11          2.7270    24.3350   -17.5890 hc         1 S8N       0.050700
     61 H12          3.5520    21.3920   -17.7730 hc         1 S8N       0.055200
     62 H13          4.6480    22.7600   -17.9150 hc         1 S8N       0.055200
     63 H14          2.9660    22.0800   -15.4610 h1         1 S8N       0.082700
     64 H15          5.7290    18.9530   -15.1820 h1         1 S8N       0.101700
     65 H16          4.9640    18.6450   -12.7930 hc         1 S8N       0.057700
     66 H17          6.6030    18.1060   -13.1450 hc         1 S8N       0.057700
     67 H18          5.8240    20.7040   -11.7370 hc         1 S8N       0.051200
     68 H19          6.6090    19.3140   -11.0030 hc         1 S8N       0.051200
     69 H20          8.6270    19.6680   -12.3940 hc         1 S8N       0.051200
     70 H21          8.2290    21.1830   -11.5840 hc         1 S8N       0.051200
     71 H22          8.7340    21.5600   -14.0020 h1         1 S8N       0.070700
     72 H23          7.0940    22.0130   -13.6080 h1         1 S8N       0.070700
     73 H24          9.8120    20.2150   -14.9620 h1         1 S8N       0.093700
     74 H25          9.5950    18.9890   -17.7190 hc         1 S8N       0.065700
     75 H26          8.8080    17.5090   -15.8800 hc         1 S8N       0.043200
     76 H27         10.2990    17.8090   -14.9980 hc         1 S8N       0.043200
     77 H28         10.0550    16.4200   -17.7090 hc         1 S8N       0.038950
     78 H29         10.4140    15.6380   -16.1780 hc         1 S8N       0.038950
     79 H30         12.4870    16.0260   -17.5440 hc         1 S8N       0.039200
     80 H31         12.5470    16.8680   -16.0010 hc         1 S8N       0.039200
     81 H32         13.3080    18.3860   -17.7970 hc         1 S8N       0.038950
     82 H33         11.8230    18.1110   -18.6950 hc         1 S8N       0.038950
     83 H34         12.0400    19.4490   -15.9560 hc         1 S8N       0.043200
     84 H35         11.7120    20.2550   -17.4800 hc         1 S8N       0.043200
     85 H36          9.1480    21.7600   -17.3860 hn         1 S8N       0.325500
     86 H37         11.2180    24.9310   -15.2020 hc         1 S8N       0.053200
     87 H38         12.6680    24.1420   -15.8320 hc         1 S8N       0.053200
     88 H39         11.9210    25.4610   -16.7440 hc         1 S8N       0.053200
     89 H40         12.5200    22.5260   -17.6950 hc         1 S8N       0.053200
     90 H41         11.0840    22.4050   -18.7130 hc         1 S8N       0.053200
     91 H42         12.0420    23.8990   -18.6890 hc         1 S8N       0.053200
     92 H43          8.5460    25.1610   -18.9170 h1         1 S8N       0.042367
     93 H44         10.2280    25.7000   -18.7860 h1         1 S8N       0.042367
     94 H45          9.8310    24.0870   -19.4080 h1         1 S8N       0.042367
     95 H46          8.2660    26.6470   -17.1300 h1         1 S8N       0.070200
     96 H47          7.0570    25.4300   -17.5410 h1         1 S8N       0.070200
     97 H48          6.0970    23.8260   -16.5110 ha         1 S8N       0.121000
     98 H49          2.6120    23.8770   -14.0360 ha         1 S8N       0.126000
     99 H50          3.3240    26.0570   -13.0820 ha         1 S8N       0.117000
    100 H51          5.4160    27.1320   -13.8710 ha         1 S8N       0.128000
@<TRIPOS>BOND
     1     1     2 1   
     2     1    50 1   
     3     1    51 1   
     4     1    52 1   
     5     2     3 1   
     6     3     4 ar  
     7     3     5 ar  
     8     4    10 ar  
     9     4    53 1   
    10     5     6 1   
    11     5     8 ar  
    12     6     7 1   
    13     7    54 1   
    14     7    55 1   
    15     7    56 1   
    16     8     9 ar  
    17     8    57 1   
    18     9    10 ar  
    19     9    58 1   
    20    10    11 1   
    21    11    12 1   
    22    11    59 1   
    23    11    60 1   
    24    12    13 1   
    25    12    61 1   
    26    12    62 1   
    27    13    14 1   
    28    13    46 1   
    29    13    63 1   
    30    14    15 1   
    31    15    16 2   
    32    15    17 1   
    33    17    18 1   
    34    17    22 1   
    35    17    64 1   
    36    18    19 1   
    37    18    65 1   
    38    18    66 1   
    39    19    20 1   
    40    19    67 1   
    41    19    68 1   
    42    20    21 1   
    43    20    69 1   
    44    20    70 1   
    45    21    22 1   
    46    21    71 1   
    47    21    72 1   
    48    22    23 1   
    49    23    24 2   
    50    23    25 1   
    51    25    26 1   
    52    25    32 1   
    53    25    73 1   
    54    26    27 1   
    55    26    31 1   
    56    26    74 1   
    57    27    28 1   
    58    27    75 1   
    59    27    76 1   
    60    28    29 1   
    61    28    77 1   
    62    28    78 1   
    63    29    30 1   
    64    29    79 1   
    65    29    80 1   
    66    30    31 1   
    67    30    81 1   
    68    30    82 1   
    69    31    83 1   
    70    31    84 1   
    71    32    33 1   
    72    32    85 1   
    73    33    34 2   
    74    33    35 1   
    75    35    36 1   
    76    35    37 1   
    77    35    38 1   
    78    36    86 1   
    79    36    87 1   
    80    36    88 1   
    81    37    89 1   
    82    37    90 1   
    83    37    91 1   
    84    38    39 1   
    85    38    40 1   
    86    39    92 1   
    87    39    93 1   
    88    39    94 1   
    89    40    41 2   
    90    40    42 1   
    91    42    43 1   
    92    42    95 1   
    93    42    96 1   
    94    43    44 1   
    95    44    45 ar  
    96    44    49 ar  
    97    45    46 ar  
    98    45    97 1   
    99    46    47 ar  
   100    47    48 ar  
   101    47    98 1   
   102    48    49 ar  
   103    48    99 1   
   104    49   100 1   
@<TRIPOS>SUBSTRUCTURE
     1 S8N         1 TEMP              0 ****  ****    0 ROOT
