@<TRIPOS>MOLECULE
S8O
   55    58     1     0     0
SMALL
abcg2


@<TRIPOS>ATOM
      1 C10        -18.9500    21.7340     5.1200 ca         1 S8O      -0.122000
      2 C12        -17.5320    22.0240     3.1900 ca         1 S8O      -0.156000
      3 C18        -15.7170    17.5800    -0.4700 c6         1 S8O      -0.075900
      4 C19        -14.6490    17.3960    -1.5490 c6         1 S8O      -0.070900
      5 C20        -13.2580    17.2400    -0.9360 c6         1 S8O      -0.076400
      6 C21        -12.9250    18.4210    -0.0260 c6         1 S8O      -0.070900
      7 C15        -16.4040    18.8930     1.6050 c          1 S8O       0.580100
      8 C17        -15.4080    18.7760     0.4340 c6         1 S8O       0.111000
      9 C24        -16.3550    20.4230    -1.1360 ca         1 S8O       0.125100
     10 C25        -15.9760    21.3130    -2.1420 ca         1 S8O      -0.150000
     11 C31        -17.9750    19.8080     4.0420 ca         1 S8O      -0.125000
     12 C04        -20.2990    17.4410     6.8510 cc         1 S8O      -0.322900
     13 C05        -19.7010    18.0740     5.7940 cd         1 S8O      -0.092000
     14 C06        -19.4200    19.4540     6.0310 cd         1 S8O      -0.058000
     15 C07        -19.8160    19.8290     7.2930 cc         1 S8O      -0.227000
     16 C09        -18.7760    20.3480     5.0530 ca         1 S8O       0.013000
     17 C11        -18.3230    22.5600     4.1960 ca         1 S8O      -0.082000
     18 C13        -17.3600    20.6390     3.1080 ca         1 S8O      -0.025000
     19 C22        -14.0000    18.6280     1.0420 c6         1 S8O      -0.075900
     20 C26        -16.9210    21.8420    -3.0070 ca         1 S8O      -0.071000
     21 C27        -18.2520    21.4660    -2.8700 ca         1 S8O       0.095000
     22 C29        -18.6420    20.5810    -1.8790 ca         1 S8O      -0.071000
     23 C30        -17.6940    20.0610    -1.0040 ca         1 S8O      -0.150000
     24 N01        -20.8810    15.3690     5.7890 nv         1 S8O      -1.067200
     25 N03        -20.9590    15.4220     8.0800 n2         1 S8O      -0.860100
     26 N14        -16.5380    20.1570     2.0770 ns         1 S8O      -0.139000
     27 O16        -16.9620    17.9070     2.0720 o          1 S8O      -0.586100
     28 O23        -15.3460    20.0170    -0.3070 os         1 S8O      -0.372100
     29 S08        -20.5320    18.5450     8.1680 ss         1 S8O       0.238000
     30 CL28       -19.4510    22.1200    -3.9680 cl         1 S8O      -0.208000
     31 H101       -19.5850    22.1660     5.8810 ha         1 S8O       0.117000
     32 H121       -17.0510    22.6690     2.4640 ha         1 S8O       0.116000
     33 H181       -16.7050    17.6800    -0.9180 hc         1 S8O       0.062950
     34 H182       -15.7520    16.6970     0.1690 hc         1 S8O       0.062950
     35 H191       -14.6570    18.2560    -2.2260 hc         1 S8O       0.048450
     36 H192       -14.9010    16.5220    -2.1530 hc         1 S8O       0.048450
     37 H202       -13.2270    16.3130    -0.3510 hc         1 S8O       0.043200
     38 H201       -12.5050    17.1450    -1.7220 hc         1 S8O       0.043200
     39 H211       -11.9620    18.2680     0.4670 hc         1 S8O       0.048450
     40 H212       -12.8340    19.3300    -0.6260 hc         1 S8O       0.048450
     41 H251       -14.9340    21.5880    -2.2330 ha         1 S8O       0.131500
     42 H311       -17.8130    18.7440     3.9820 ha         1 S8O       0.145000
     43 H051       -19.4590    17.5790     4.8650 ha         1 S8O       0.140000
     44 H071       -19.7130    20.7940     7.7620 h4         1 S8O       0.153000
     45 H111       -18.4610    23.6330     4.2510 ha         1 S8O       0.117000
     46 H222       -14.0250    17.7720     1.7200 hc         1 S8O       0.062950
     47 H221       -13.7820    19.5140     1.6420 hc         1 S8O       0.062950
     48 H261       -16.6240    22.5330    -3.7840 ha         1 S8O       0.133000
     49 H291       -19.6810    20.2980    -1.7750 ha         1 S8O       0.133000
     50 H301       -18.0240    19.3820    -0.2330 ha         1 S8O       0.131500
     51 H012       -20.9970    14.3690     5.8150 hn         1 S8O       0.490000
     52 H031       -20.7820    16.0270     8.8760 hn         1 S8O       0.382400
     53 H141       -16.0450    20.8640     1.5500 hn         1 S8O       0.169000
     54 H011       -20.6330    15.7860     4.9110 hn         1 S8O       0.490000
     55 C02        -20.7210    16.0300     6.9670 ce         1 S8O       0.715800
@<TRIPOS>BOND
     1     1    16 ar  
     2     1    17 ar  
     3     1    31 1   
     4     2    17 ar  
     5     2    18 ar  
     6     2    32 1   
     7     3     4 1   
     8     3     8 1   
     9     3    33 1   
    10     3    34 1   
    11     4     5 1   
    12     4    35 1   
    13     4    36 1   
    14     5     6 1   
    15     5    37 1   
    16     5    38 1   
    17     6    19 1   
    18     6    39 1   
    19     6    40 1   
    20     7     8 1   
    21     7    26 1   
    22     7    27 2   
    23     8    19 1   
    24     8    28 1   
    25     9    10 ar  
    26     9    23 ar  
    27     9    28 1   
    28    10    20 ar  
    29    10    41 1   
    30    11    16 ar  
    31    11    18 ar  
    32    11    42 1   
    33    12    13 2   
    34    12    29 1   
    35    12    55 1   
    36    13    14 1   
    37    13    43 1   
    38    14    15 2   
    39    14    16 1   
    40    15    29 1   
    41    15    44 1   
    42    17    45 1   
    43    18    26 1   
    44    19    46 1   
    45    19    47 1   
    46    20    21 ar  
    47    20    48 1   
    48    21    22 ar  
    49    21    30 1   
    50    22    23 ar  
    51    22    49 1   
    52    23    50 1   
    53    24    51 1   
    54    24    54 1   
    55    24    55 1   
    56    25    52 1   
    57    25    55 2   
    58    26    53 1   
@<TRIPOS>SUBSTRUCTURE
     1 S8O         1 TEMP              0 ****  ****    0 ROOT
