@<TRIPOS>MOLECULE
S8O
   55    58     1     0     0
SMALL
No Charge or Current Charge


@<TRIPOS>ATOM
      1 C10        -18.8290    21.5500     5.4740 ca         1 S8O      -0.122000
      2 C12        -17.5200    21.9350     3.4590 ca         1 S8O      -0.156000
      3 C18        -16.1760    18.0810    -0.0110 c6         1 S8O      -0.075900
      4 C19        -15.3830    17.0300    -0.8350 c6         1 S8O      -0.070900
      5 C20        -13.9760    16.8160    -0.2320 c6         1 S8O      -0.076400
      6 C21        -13.2210    18.1590    -0.0990 c6         1 S8O      -0.070900
      7 C15        -16.2180    20.5070     0.9740 c          1 S8O       0.580100
      8 C17        -15.4600    19.4820     0.0330 c6         1 S8O       0.111000
      9 C24        -16.2090    20.5200    -2.1070 ca         1 S8O       0.125100
     10 C25        -16.2050    21.8960    -2.3990 ca         1 S8O      -0.150000
     11 C31        -18.0170    19.6690     4.1790 ca         1 S8O      -0.125000
     12 C04        -19.9970    17.1290     7.1960 cc         1 S8O      -0.322900
     13 C05        -19.3410    17.7910     6.1810 cd         1 S8O      -0.092000
     14 C06        -19.3710    19.2200     6.2690 cd         1 S8O      -0.058000
     15 C07        -20.0770    19.6330     7.3780 cc         1 S8O      -0.227000
     16 C09        -18.7350    20.1510     5.3000 ca         1 S8O       0.013000
     17 C11        -18.2250    22.4320     4.5640 ca         1 S8O      -0.082000
     18 C13        -17.4170    20.5450     3.2530 ca         1 S8O      -0.025000
     19 C22        -14.0630    19.2030     0.6860 c6         1 S8O      -0.075900
     20 C26        -17.1910    22.4490    -3.2360 ca         1 S8O      -0.071000
     21 C27        -18.1710    21.6190    -3.8040 ca         1 S8O       0.095000
     22 C29        -18.1580    20.2380    -3.5490 ca         1 S8O      -0.071000
     23 C30        -17.1720    19.6860    -2.7100 ca         1 S8O      -0.150000
     24 N01        -19.3280    14.8580     6.7900 nv         1 S8O      -1.067200
     25 N03        -21.1640    15.2110     7.9910 n2         1 S8O      -0.860100
     26 N14        -16.7100    19.9690     2.1620 ns         1 S8O      -0.139000
     27 O16        -16.4280    21.6720     0.6460 o          1 S8O      -0.586100
     28 O23        -15.2010    20.0150    -1.3090 os         1 S8O      -0.372100
     29 S08        -20.7130    18.2860     8.3080 ss         1 S8O       0.238000
     30 Cl28       -19.4020    22.3060    -4.8560 cl         1 S8O      -0.208000
     31 H101       -19.3670    21.9730     6.3160 ha         1 S8O       0.117000
     32 H121       -17.0510    22.6460     2.7850 ha         1 S8O       0.116000
     33 H181       -17.2000    18.1830    -0.3930 hc         1 S8O       0.062950
     34 H182       -16.2960    17.6770     1.0030 hc         1 S8O       0.062950
     35 H191       -15.2910    17.3510    -1.8820 hc         1 S8O       0.048450
     36 H192       -15.9300    16.0770    -0.8490 hc         1 S8O       0.048450
     37 H202       -14.0650    16.3420     0.7550 hc         1 S8O       0.043200
     38 H201       -13.4000    16.1220    -0.8600 hc         1 S8O       0.043200
     39 H211       -12.2620    17.9950     0.4110 hc         1 S8O       0.048450
     40 H212       -12.9760    18.5470    -1.0970 hc         1 S8O       0.048450
     41 H251       -15.4430    22.5360    -1.9620 ha         1 S8O       0.131500
     42 H311       -17.9210    18.6020     4.0100 ha         1 S8O       0.145000
     43 H051       -18.8490    17.2510     5.3800 ha         1 S8O       0.140000
     44 H071       -20.2860    20.6320     7.7320 h4         1 S8O       0.153000
     45 H111       -18.3030    23.5060     4.7190 ha         1 S8O       0.117000
     46 H222       -14.1860    18.8560     1.7220 hc         1 S8O       0.062950
     47 H221       -13.4980    20.1440     0.7520 hc         1 S8O       0.062950
     48 H261       -17.1930    23.5150    -3.4460 ha         1 S8O       0.133000
     49 H291       -18.9040    19.5950    -4.0100 ha         1 S8O       0.133000
     50 H301       -17.1530    18.6120    -2.5600 ha         1 S8O       0.131500
     51 H012       -19.3880    13.9170     7.1550 hn         1 S8O       0.490000
     52 H031       -21.7830    15.9870     8.2510 hn         1 S8O       0.382400
     53 H141       -16.5140    18.9840     2.2820 hn         1 S8O       0.169000
     54 H011       -18.3910    15.2150     6.6490 hn         1 S8O       0.490000
     55 C02        -20.1660    15.7040     7.3920 ce         1 S8O       0.715800
@<TRIPOS>BOND
     1     1    16 ar  
     2     1    17 ar  
     3     1    31 1   
     4     2    17 ar  
     5     2    18 ar  
     6     2    32 1   
     7     3     4 1   
     8     3     8 1   
     9     3    33 1   
    10     3    34 1   
    11     4     5 1   
    12     4    35 1   
    13     4    36 1   
    14     5     6 1   
    15     5    37 1   
    16     5    38 1   
    17     6    19 1   
    18     6    39 1   
    19     6    40 1   
    20     7     8 1   
    21     7    26 1   
    22     7    27 2   
    23     8    19 1   
    24     8    28 1   
    25     9    10 ar  
    26     9    23 ar  
    27     9    28 1   
    28    10    20 ar  
    29    10    41 1   
    30    11    16 ar  
    31    11    18 ar  
    32    11    42 1   
    33    12    13 2   
    34    12    29 1   
    35    12    55 1   
    36    13    14 1   
    37    13    43 1   
    38    14    15 2   
    39    14    16 1   
    40    15    29 1   
    41    15    44 1   
    42    17    45 1   
    43    18    26 1   
    44    19    46 1   
    45    19    47 1   
    46    20    21 ar  
    47    20    48 1   
    48    21    22 ar  
    49    21    30 1   
    50    22    23 ar  
    51    22    49 1   
    52    23    50 1   
    53    24    51 1   
    54    24    54 1   
    55    24    55 1   
    56    25    52 1   
    57    25    55 2   
    58    26    53 1   
@<TRIPOS>SUBSTRUCTURE
     1 S8O         1 TEMP              0 ****  ****    0 ROOT
