@<TRIPOS>MOLECULE
S8P
   29    30     1     0     0
SMALL
abcg2


@<TRIPOS>ATOM
      1 N1          41.1190     3.0320    74.8890 ns         1 S8P      -0.479900
      2 C4          41.3370     1.9660    75.6620 c          1 S8P       0.524600
      3 C5          39.7890     3.4650    74.5190 c3         1 S8P       0.100000
      4 C6          39.8440     4.7010    73.6440 c5         1 S8P       0.144300
      5 C7          38.4540     5.2020    73.2500 c5         1 S8P      -0.106400
      6 C8          38.6810     5.7220    71.8350 c5         1 S8P      -0.114400
      7 N           43.7200     2.3990    75.4100 nc         1 S8P      -0.521100
      8 O           40.4520     1.2710    76.1420 o          1 S8P      -0.606100
      9 C1          44.5610     0.4920    76.7580 cc         1 S8P      -0.225300
     10 C2          43.1970     0.5420    76.6950 cd         1 S8P      -0.142000
     11 C3          42.7750     1.6470    75.9170 cd         1 S8P       0.251500
     12 C9          39.7030     4.7260    71.3170 c5         1 S8P       0.154600
     13 O1          40.5350     4.4280    72.4290 os         1 S8P      -0.463000
     14 S           45.1850     1.8060    75.8560 ss         1 S8P       0.339100
     15 H1          41.9220     3.5340    74.5390 hn         1 S8P       0.348500
     16 H2          39.2080     3.7000    75.4150 h1         1 S8P       0.055200
     17 H3          39.2620     2.6630    73.9930 h1         1 S8P       0.055200
     18 H4          40.3900     5.4890    74.1790 h1         1 S8P       0.057700
     19 H5          38.0810     5.9600    73.9390 hc         1 S8P       0.057700
     20 H6          37.7350     4.3780    73.2410 hc         1 S8P       0.057700
     21 H7          39.0980     6.7310    71.8560 hc         1 S8P       0.057200
     22 H8          37.7730     5.7440    71.2330 hc         1 S8P       0.057200
     23 H9          46.4490    -0.4810    77.0970 hc         1 S8P       0.052033
     24 H10         45.4810    -0.2200    78.5440 hc         1 S8P       0.052033
     25 H11         45.0300    -1.4830    77.4020 hc         1 S8P       0.052033
     26 H13         39.2060     3.8190    70.9510 h1         1 S8P       0.047200
     27 H14         40.3230     5.1200    70.5080 h1         1 S8P       0.047200
     28 H12         42.5370    -0.1690    77.1680 ha         1 S8P       0.167000
     29 C           45.4320    -0.4740    77.4840 c3         1 S8P      -0.020800
@<TRIPOS>BOND
     1     1     2 1   
     2     1     3 1   
     3     1    15 1   
     4     2     8 2   
     5     2    11 1   
     6     3     4 1   
     7     3    16 1   
     8     3    17 1   
     9     4     5 1   
    10     4    13 1   
    11     4    18 1   
    12     5     6 1   
    13     5    19 1   
    14     5    20 1   
    15     6    12 1   
    16     6    21 1   
    17     6    22 1   
    18     7    11 2   
    19     7    14 1   
    20     9    10 2   
    21     9    14 1   
    22     9    29 1   
    23    10    11 1   
    24    10    28 1   
    25    12    13 1   
    26    12    26 1   
    27    12    27 1   
    28    23    29 1   
    29    24    29 1   
    30    25    29 1   
@<TRIPOS>SUBSTRUCTURE
     1 S8P         1 TEMP              0 ****  ****    0 ROOT
