@<TRIPOS>MOLECULE
S8P
   29    30     1     0     0
SMALL
No Charge or Current Charge


@<TRIPOS>ATOM
      1 N1          41.0320     2.8400    74.6870 ns         1 S8P      -0.479900
      2 C4          41.2830     1.8650    75.6330 c          1 S8P       0.524600
      3 C5          39.7050     3.3450    74.3170 c3         1 S8P       0.100000
      4 C6          39.7170     4.8250    73.8520 c5         1 S8P       0.144300
      5 C7          38.3510     5.3160    73.2660 c5         1 S8P      -0.106400
      6 C8          38.6980     5.7100    71.8000 c5         1 S8P      -0.114400
      7 N           43.6950     2.1860    75.1120 nc         1 S8P      -0.521100
      8 O           40.3750     1.3180    76.2520 o          1 S8P      -0.606100
      9 C1          44.5890     0.4830    76.7260 cc         1 S8P      -0.225300
     10 C2          43.2270     0.5850    76.7390 cd         1 S8P      -0.142000
     11 C3          42.7500     1.5580    75.8150 cd         1 S8P       0.251500
     12 C9          39.9450     4.8390    71.5400 c5         1 S8P       0.154600
     13 O1          40.6660     4.9940    72.7720 os         1 S8P      -0.463000
     14 S           45.2230     1.6190    75.5460 ss         1 S8P       0.339100
     15 H1          41.8460     3.2350    74.2250 hn         1 S8P       0.348500
     16 H2          39.0310     3.2580    75.1790 h1         1 S8P       0.055200
     17 H3          39.3060     2.7120    73.5140 h1         1 S8P       0.055200
     18 H4          40.0380     5.4510    74.6960 h1         1 S8P       0.057700
     19 H5          37.9440     6.1630    73.8300 hc         1 S8P       0.057700
     20 H6          37.5930     4.5240    73.2960 hc         1 S8P       0.057700
     21 H7          38.9430     6.7750    71.7170 hc         1 S8P       0.057200
     22 H8          37.8830     5.5010    71.0970 hc         1 S8P       0.057200
     23 H9          46.0750    -1.0690    76.8920 hc         1 S8P       0.052033
     24 H10         46.1730     0.1740    78.1540 hc         1 S8P       0.052033
     25 H11         44.8930    -1.0520    78.2130 hc         1 S8P       0.052033
     26 H13         39.6920     3.7800    71.3890 h1         1 S8P       0.047200
     27 H14         40.5510     5.1920    70.6950 h1         1 S8P       0.047200
     28 H12         42.5760    -0.0040    77.3770 ha         1 S8P       0.167000
     29 C           45.4800    -0.4150    77.5410 c3         1 S8P      -0.020800
@<TRIPOS>BOND
     1     1     2 1   
     2     1     3 1   
     3     1    15 1   
     4     2     8 2   
     5     2    11 1   
     6     3     4 1   
     7     3    16 1   
     8     3    17 1   
     9     4     5 1   
    10     4    13 1   
    11     4    18 1   
    12     5     6 1   
    13     5    19 1   
    14     5    20 1   
    15     6    12 1   
    16     6    21 1   
    17     6    22 1   
    18     7    11 2   
    19     7    14 1   
    20     9    10 2   
    21     9    14 1   
    22     9    29 1   
    23    10    11 1   
    24    10    28 1   
    25    12    13 1   
    26    12    26 1   
    27    12    27 1   
    28    23    29 1   
    29    24    29 1   
    30    25    29 1   
@<TRIPOS>SUBSTRUCTURE
     1 S8P         1 TEMP              0 ****  ****    0 ROOT
