@<TRIPOS>MOLECULE
S8Q
   61    63     1     0     0
SMALL
No Charge or Current Charge


@<TRIPOS>ATOM
      1 C15         27.2490    32.5310    32.1410 c6         1 S8Q       0.077500
      2 C17         27.8730    34.2780    33.9240 c3         1 S8Q      -0.111100
      3 C20         29.7940    30.4010    33.7920 c3         1 S8Q      -0.111100
      4 C21         29.1110    30.9930    31.3610 c6         1 S8Q       0.077500
      5 C22         29.6950    32.8930    27.8130 ca         1 S8Q      -0.139000
      6 C26         31.9060    34.0740    30.6870 c5         1 S8Q      -0.093400
      7 C28         31.6220    36.5340    30.8900 c5         1 S8Q      -0.073400
      8 C01         34.1630    34.5830    26.6260 c3         1 S8Q       0.145900
      9 C03         31.9230    33.6990    27.2010 ca         1 S8Q       0.124100
     10 C04         32.0750    32.5860    26.3480 ca         1 S8Q      -0.176000
     11 C05         31.0410    31.6440    26.2210 ca         1 S8Q      -0.085000
     12 C06         29.8250    31.8010    26.9220 ca         1 S8Q      -0.159900
     13 C07         28.7220    30.7880    26.7580 ce         1 S8Q       0.440900
     14 C08         28.5080    30.1560    25.3950 c3         1 S8Q      -0.133400
     15 C11         27.1820    29.4840    29.6460 c3         1 S8Q       0.090600
     16 C12         26.7550    30.7500    30.4350 c          1 S8Q       0.582100
     17 C16         28.1100    32.8450    33.3930 c6         1 S8Q       0.158300
     18 C19         29.9140    31.4190    32.6230 c6         1 S8Q       0.158300
     19 C23         30.7360    33.8340    27.9570 ca         1 S8Q       0.115100
     20 C25         30.5010    34.5070    30.1750 c5         1 S8Q       0.164300
     21 C27         32.7050    35.4120    30.7800 c5         1 S8Q      -0.073400
     22 C29         30.2780    35.7650    31.0470 c5         1 S8Q      -0.093400
     23 N09         27.8440    30.6180    27.6980 n2         1 S8Q      -0.333700
     24 N14         27.6400    31.2870    31.4040 n          1 S8Q      -0.401800
     25 O10         28.2630    29.7330    28.7120 os         1 S8Q      -0.320000
     26 O13         25.6350    31.2310    30.2860 o          1 S8Q      -0.608100
     27 O18         29.5110    32.7310    33.0770 os         1 S8Q      -0.468000
     28 O24         30.5760    34.9330    28.7830 os         1 S8Q      -0.334100
     29 H1          27.3150    33.3780    31.4430 h1         1 S8Q       0.060450
     30 H2          26.1990    32.4570    32.4570 h1         1 S8Q       0.060450
     31 H3          28.5380    34.5010    34.7660 hc         1 S8Q       0.045033
     32 H4          28.0450    35.0300    33.1460 hc         1 S8Q       0.045033
     33 H5          26.8410    34.3970    34.2760 hc         1 S8Q       0.045033
     34 H6          30.2270    30.8040    34.7150 hc         1 S8Q       0.045033
     35 H7          28.7530    30.1200    33.9930 hc         1 S8Q       0.045033
     36 H8          30.3340    29.4770    33.5520 hc         1 S8Q       0.045033
     37 H9          29.2750    29.9170    31.2070 h1         1 S8Q       0.060450
     38 H10         29.5390    31.5030    30.4880 h1         1 S8Q       0.060450
     39 H11         28.7710    33.0330    28.3690 ha         1 S8Q       0.124000
     40 H12         31.8230    33.6140    31.6780 hc         1 S8Q       0.053950
     41 H13         32.3960    33.3350    30.0450 hc         1 S8Q       0.053950
     42 H14         31.6160    37.1560    29.9870 hc         1 S8Q       0.046700
     43 H15         31.8080    37.2080    31.7350 hc         1 S8Q       0.046700
     44 H16         34.7950    35.4430    26.8800 h1         1 S8Q       0.042367
     45 H17         34.7080    33.6690    26.8950 h1         1 S8Q       0.042367
     46 H18         33.9990    34.5910    25.5400 h1         1 S8Q       0.042367
     47 H19         32.9830    32.4350    25.7720 ha         1 S8Q       0.121000
     48 H20         31.1910    30.7910    25.5630 ha         1 S8Q       0.116000
     49 H21         27.4490    30.1840    25.1130 hc         1 S8Q       0.058033
     50 H22         29.0610    30.6740    24.6050 hc         1 S8Q       0.058033
     51 H23         28.8230    29.1070    25.4000 hc         1 S8Q       0.058033
     52 H24         26.2980    29.0950    29.1240 h1         1 S8Q       0.076200
     53 H25         27.4850    28.7300    30.3820 h1         1 S8Q       0.076200
     54 H26         27.8550    32.1430    34.1990 h1         1 S8Q       0.064700
     55 H27         30.9790    31.4710    32.3530 h1         1 S8Q       0.064700
     56 H28         29.7180    33.7520    30.3190 h1         1 S8Q       0.048700
     57 H29         33.3790    35.4110    31.6440 hc         1 S8Q       0.046700
     58 H30         33.3310    35.5660    29.8950 hc         1 S8Q       0.046700
     59 H31         29.4150    36.3560    30.7220 hc         1 S8Q       0.053950
     60 H32         30.1070    35.4900    32.0940 hc         1 S8Q       0.053950
     61 O02         32.9130    34.6590    27.3320 os         1 S8Q      -0.327100
@<TRIPOS>BOND
     1     1    17 1   
     2     1    24 1   
     3     1    29 1   
     4     1    30 1   
     5     2    17 1   
     6     2    31 1   
     7     2    32 1   
     8     2    33 1   
     9     3    18 1   
    10     3    34 1   
    11     3    35 1   
    12     3    36 1   
    13     4    18 1   
    14     4    24 1   
    15     4    37 1   
    16     4    38 1   
    17     5    12 ar  
    18     5    19 ar  
    19     5    39 1   
    20     6    20 1   
    21     6    21 1   
    22     6    40 1   
    23     6    41 1   
    24     7    21 1   
    25     7    22 1   
    26     7    42 1   
    27     7    43 1   
    28     8    44 1   
    29     8    45 1   
    30     8    46 1   
    31     8    61 1   
    32     9    10 ar  
    33     9    19 ar  
    34     9    61 1   
    35    10    11 ar  
    36    10    47 1   
    37    11    12 ar  
    38    11    48 1   
    39    12    13 1   
    40    13    14 1   
    41    13    23 2   
    42    14    49 1   
    43    14    50 1   
    44    14    51 1   
    45    15    16 1   
    46    15    25 1   
    47    15    52 1   
    48    15    53 1   
    49    16    24 1   
    50    16    26 2   
    51    17    27 1   
    52    17    54 1   
    53    18    27 1   
    54    18    55 1   
    55    19    28 1   
    56    20    22 1   
    57    20    28 1   
    58    20    56 1   
    59    21    57 1   
    60    21    58 1   
    61    22    59 1   
    62    22    60 1   
    63    23    25 1   
@<TRIPOS>SUBSTRUCTURE
     1 S8Q         1 TEMP              0 ****  ****    0 ROOT
