@<TRIPOS>MOLECULE
S8Q
   61    63     1     0     0
SMALL
abcg2


@<TRIPOS>ATOM
      1 C15         26.4480    31.0580    32.3630 c6         1 S8Q       0.077500
      2 C17         25.5590    33.1000    31.1330 c3         1 S8Q      -0.111100
      3 C20         29.0060    32.2090    34.0500 c3         1 S8Q      -0.111100
      4 C21         28.5830    32.0500    31.5470 c6         1 S8Q       0.077500
      5 C22         30.4150    33.0940    28.3730 ca         1 S8Q      -0.139000
      6 C26         32.3150    32.9030    31.0420 c5         1 S8Q      -0.093400
      7 C28         34.0370    34.6060    31.5230 c5         1 S8Q      -0.073400
      8 C01         33.7190    35.0740    25.5050 c3         1 S8Q       0.145900
      9 C03         32.0450    34.0850    26.8900 ca         1 S8Q       0.124100
     10 C04         31.3950    33.5020    25.8110 ca         1 S8Q      -0.176000
     11 C05         30.2530    32.7250    26.0040 ca         1 S8Q      -0.085000
     12 C06         29.7600    32.4970    27.2850 ca         1 S8Q      -0.159900
     13 C07         28.5470    31.6690    27.4780 ce         1 S8Q       0.440900
     14 C08         27.3980    31.8560    26.5280 c3         1 S8Q      -0.133400
     15 C11         29.1790    29.5460    30.1450 c3         1 S8Q       0.090600
     16 C12         27.9340    29.7080    31.0180 c          1 S8Q       0.582100
     17 C16         26.0490    32.5240    32.4580 c6         1 S8Q       0.158300
     18 C19         28.4500    32.8930    32.8070 c6         1 S8Q       0.158300
     19 C23         31.5360    33.8860    28.1950 ca         1 S8Q       0.115100
     20 C25         31.8260    34.2720    30.5680 c5         1 S8Q       0.164300
     21 C27         33.8290    33.0880    31.2660 c5         1 S8Q      -0.073400
     22 C29         32.6360    35.2430    31.4160 c5         1 S8Q      -0.093400
     23 N09         28.3560    30.7870    28.3890 n2         1 S8Q      -0.333700
     24 N14         27.6790    30.9010    31.5870 n          1 S8Q      -0.401800
     25 O10         29.4570    30.6100    29.2500 os         1 S8Q      -0.320000
     26 O13         27.2060    28.7260    31.1940 o          1 S8Q      -0.608100
     27 O18         27.0980    33.3310    33.0210 os         1 S8Q      -0.468000
     28 O24         32.2050    34.5140    29.1940 os         1 S8Q      -0.334100
     29 H1          25.6540    30.4940    31.8780 h1         1 S8Q       0.060450
     30 H2          26.5800    30.6420    33.3650 h1         1 S8Q       0.060450
     31 H3          25.3270    34.1590    31.2560 hc         1 S8Q       0.045033
     32 H4          26.2990    32.9990    30.3380 hc         1 S8Q       0.045033
     33 H5          24.6500    32.5820    30.8200 hc         1 S8Q       0.045033
     34 H6          28.8640    32.8520    34.9190 hc         1 S8Q       0.045033
     35 H7          28.5170    31.2540    34.2440 hc         1 S8Q       0.045033
     36 H8          30.0760    32.0300    33.9250 hc         1 S8Q       0.045033
     37 H9          29.6110    31.7090    31.4710 h1         1 S8Q       0.060450
     38 H10         28.3690    32.6690    30.6750 h1         1 S8Q       0.060450
     39 H11         30.0340    32.9320    29.3630 ha         1 S8Q       0.124000
     40 H12         31.8090    32.6750    31.9830 hc         1 S8Q       0.053950
     41 H13         32.0780    32.1020    30.3430 hc         1 S8Q       0.053950
     42 H14         34.7070    35.0300    30.7740 hc         1 S8Q       0.046700
     43 H15         34.4850    34.7980    32.4980 hc         1 S8Q       0.046700
     44 H16         34.5930    35.7000    25.6640 h1         1 S8Q       0.042367
     45 H17         34.0200    34.1300    25.0460 h1         1 S8Q       0.042367
     46 H18         33.0110    35.5890    24.8520 h1         1 S8Q       0.042367
     47 H19         31.7690    33.6470    24.8080 ha         1 S8Q       0.121000
     48 H20         29.7720    32.2850    25.1420 ha         1 S8Q       0.116000
     49 H21         26.5690    31.2060    26.8020 hc         1 S8Q       0.058033
     50 H22         27.0640    32.8960    26.5440 hc         1 S8Q       0.058033
     51 H23         27.7000    31.6280    25.5040 hc         1 S8Q       0.058033
     52 H24         29.0510    28.6090    29.6030 h1         1 S8Q       0.076200
     53 H25         30.0630    29.4710    30.7810 h1         1 S8Q       0.076200
     54 H26         25.2300    32.5820    33.1780 h1         1 S8Q       0.064700
     55 H27         29.0260    33.8050    32.6290 h1         1 S8Q       0.064700
     56 H28         30.7500    34.4180    30.6730 h1         1 S8Q       0.048700
     57 H29         34.1820    32.4780    32.0970 hc         1 S8Q       0.046700
     58 H30         34.3820    32.7750    30.3810 hc         1 S8Q       0.046700
     59 H31         32.6440    36.2460    30.9890 hc         1 S8Q       0.053950
     60 H32         32.1640    35.3010    32.3980 hc         1 S8Q       0.053950
     61 O02         33.1560    34.8560    26.7990 os         1 S8Q      -0.327100
@<TRIPOS>BOND
     1     1    17 1   
     2     1    24 1   
     3     1    29 1   
     4     1    30 1   
     5     2    17 1   
     6     2    31 1   
     7     2    32 1   
     8     2    33 1   
     9     3    18 1   
    10     3    34 1   
    11     3    35 1   
    12     3    36 1   
    13     4    18 1   
    14     4    24 1   
    15     4    37 1   
    16     4    38 1   
    17     5    12 ar  
    18     5    19 ar  
    19     5    39 1   
    20     6    20 1   
    21     6    21 1   
    22     6    40 1   
    23     6    41 1   
    24     7    21 1   
    25     7    22 1   
    26     7    42 1   
    27     7    43 1   
    28     8    44 1   
    29     8    45 1   
    30     8    46 1   
    31     8    61 1   
    32     9    10 ar  
    33     9    19 ar  
    34     9    61 1   
    35    10    11 ar  
    36    10    47 1   
    37    11    12 ar  
    38    11    48 1   
    39    12    13 1   
    40    13    14 1   
    41    13    23 2   
    42    14    49 1   
    43    14    50 1   
    44    14    51 1   
    45    15    16 1   
    46    15    25 1   
    47    15    52 1   
    48    15    53 1   
    49    16    24 1   
    50    16    26 2   
    51    17    27 1   
    52    17    54 1   
    53    18    27 1   
    54    18    55 1   
    55    19    28 1   
    56    20    22 1   
    57    20    28 1   
    58    20    56 1   
    59    21    57 1   
    60    21    58 1   
    61    22    59 1   
    62    22    60 1   
    63    23    25 1   
@<TRIPOS>SUBSTRUCTURE
     1 S8Q         1 TEMP              0 ****  ****    0 ROOT
