@<TRIPOS>MOLECULE
S8V
   25    26     1     0     0
SMALL
No Charge or Current Charge


@<TRIPOS>ATOM
      1 C4          38.5150     4.4990    73.6830 c5         1 S8V      -0.099700
      2 C5          38.3270     5.0530    72.2420 c5         1 S8V      -0.111400
      3 C6          39.6940     4.7270    71.5690 c5         1 S8V       0.145600
      4 C7          39.9960     4.9010    73.8830 c5         1 S8V       0.146600
      5 C           38.2340     2.9810    73.8190 c3         1 S8V       0.169800
      6 O           40.6190     4.4790    72.6540 os         1 S8V      -0.449000
      7 C1          38.1240     1.1200    75.4240 cx         1 S8V       0.124500
      8 C2          38.8010     0.4680    76.6020 cx         1 S8V      -0.157400
      9 C3          39.2620     0.1570    75.1990 cx         1 S8V      -0.157400
     10 H1          37.8580     5.0150    74.3940 hc         1 S8V       0.073700
     11 H2          38.1530     6.1360    72.2540 hc         1 S8V       0.052200
     12 H3          39.6380     3.8250    70.9440 h1         1 S8V       0.045200
     13 H4          40.4750     4.4100    74.7410 h1         1 S8V       0.046200
     14 H5          40.1120     5.9890    73.9890 h1         1 S8V       0.046200
     15 H6          39.3690     2.7070    75.4890 hn         1 S8V       0.410000
     16 H8          37.2040     2.7900    73.4840 h1         1 S8V       0.037200
     17 H9          38.9040     2.4260    73.1490 h1         1 S8V       0.037200
     18 H10         37.1160     0.7770    75.1730 h1         1 S8V       0.091700
     19 H11         38.2470    -0.3010    77.1360 hc         1 S8V       0.072950
     20 H12         39.4480     1.0780    77.2270 hc         1 S8V       0.072950
     21 H13         39.0180    -0.8200    74.7900 hc         1 S8V       0.072950
     22 H14         40.2210     0.5570    74.8780 hc         1 S8V       0.072950
     23 H15         37.4800     4.5990    71.7150 hc         1 S8V       0.052200
     24 H16         40.0580     5.5600    70.9530 h1         1 S8V       0.045200
     25 N           38.4000     2.5220    75.2110 n7         1 S8V      -0.841400
@<TRIPOS>BOND
     1     1     2 1   
     2     1     4 1   
     3     1     5 1   
     4     1    10 1   
     5     2     3 1   
     6     2    11 1   
     7     2    23 1   
     8     3     6 1   
     9     3    12 1   
    10     3    24 1   
    11     4     6 1   
    12     4    13 1   
    13     4    14 1   
    14     5    16 1   
    15     5    17 1   
    16     5    25 1   
    17     7     8 1   
    18     7     9 1   
    19     7    18 1   
    20     7    25 1   
    21     8     9 1   
    22     8    19 1   
    23     8    20 1   
    24     9    21 1   
    25     9    22 1   
    26    15    25 1   
@<TRIPOS>SUBSTRUCTURE
     1 S8V         1 TEMP              0 ****  ****    0 ROOT
