@<TRIPOS>MOLECULE
S8V
   25    26     1     0     0
SMALL
bcc


@<TRIPOS>ATOM
      1 C4          38.5910     4.4170    73.6160 c5         1 S8V      -0.099700
      2 C5          38.3360     4.7810    72.1390 c5         1 S8V      -0.111400
      3 C6          39.7330     5.0740    71.5730 c5         1 S8V       0.122400
      4 C7          40.0710     4.7780    73.7810 c5         1 S8V       0.123400
      5 C           38.3040     2.9430    73.8790 c3         1 S8V       0.169800
      6 O           40.6530     4.5600    72.5150 os         1 S8V      -0.402600
      7 C1          38.0990     1.2360    75.5600 cx         1 S8V       0.124500
      8 C2          38.8390     0.5020    76.6240 cx         1 S8V      -0.157400
      9 C3          39.0230     0.1100    75.1820 cx         1 S8V      -0.157400
     10 H1          37.9730     5.0150    74.2900 hc         1 S8V       0.073700
     11 H2          37.6800     5.6460    72.0420 hc         1 S8V       0.052200
     12 H3          39.9190     4.5970    70.6100 h1         1 S8V       0.045200
     13 H4          40.6060     4.1700    74.5140 h1         1 S8V       0.046200
     14 H5          40.1740     5.8290    74.0870 h1         1 S8V       0.046200
     15 H6          39.3450     2.8110    75.6250 hn         1 S8V       0.354800
     16 H8          37.2790     2.7280    73.5630 h1         1 S8V       0.037200
     17 H9          38.9560     2.3250    73.2390 h1         1 S8V       0.037200
     18 H10         37.0370     1.0220    75.4790 h1         1 S8V       0.091700
     19 H11         38.2850    -0.1610    77.2760 hc         1 S8V       0.072950
     20 H12         39.6610     1.0120    77.1130 hc         1 S8V       0.072950
     21 H13         38.5980    -0.8260    74.8420 hc         1 S8V       0.072950
     22 H14         39.9650     0.3720    74.7130 hc         1 S8V       0.072950
     23 H15         37.8580     3.9550    71.6090 hc         1 S8V       0.052200
     24 H16         39.8760     6.1550    71.4460 h1         1 S8V       0.045200
     25 N           38.4130     2.6060    75.2860 n7         1 S8V      -0.786200
@<TRIPOS>BOND
     1     1     2 1   
     2     1     4 1   
     3     1     5 1   
     4     1    10 1   
     5     2     3 1   
     6     2    11 1   
     7     2    23 1   
     8     3     6 1   
     9     3    12 1   
    10     3    24 1   
    11     4     6 1   
    12     4    13 1   
    13     4    14 1   
    14     5    16 1   
    15     5    17 1   
    16     5    25 1   
    17     7     8 1   
    18     7     9 1   
    19     7    18 1   
    20     7    25 1   
    21     8     9 1   
    22     8    19 1   
    23     8    20 1   
    24     9    21 1   
    25     9    22 1   
    26    15    25 1   
@<TRIPOS>SUBSTRUCTURE
     1 S8V         1 TEMP              0 ****  ****    0 ROOT
