@<TRIPOS>MOLECULE
S8W
   55    59     1     0     0
SMALL
bcc


@<TRIPOS>ATOM
      1 C1          16.2610   -65.3440    -5.3070 c          1 S8W       0.677100
      2 C2          16.2190   -65.3000    -2.8340 ca         1 S8W       0.080600
      3 C3          17.3350   -66.0520    -2.4780 ca         1 S8W      -0.151000
      4 N6          19.4780   -67.9540    -2.8570 nc         1 S8W      -0.771000
      5 C7          21.4060   -69.5070    -1.5070 cc         1 S8W       0.352300
      6 C8          22.5030   -70.4750     0.4160 cx         1 S8W       0.149500
      7 C9          22.9170   -71.8290     0.8840 cx         1 S8W      -0.127400
      8 C10         21.5170   -71.3580     1.1210 cx         1 S8W      -0.127400
      9 C11         21.9580   -69.4540    -4.8900 cd         1 S8W       0.460500
     10 C12         20.8070   -68.6390    -4.8460 cd         1 S8W      -0.256300
     11 C13         20.1330   -68.0070    -5.9010 ch         1 S8W       0.249500
     12 C14         20.4600   -68.5730    -3.4910 cc         1 S8W       0.512500
     13 C15         16.3410   -66.5230    -0.3600 ca         1 S8W      -0.182000
     14 C16         15.2530   -65.7520    -0.7150 ca         1 S8W      -0.099000
     15 C19         13.1500   -64.3690    -3.5530 cx         1 S8W      -0.108400
     16 C20         13.7320   -63.1090    -3.0080 cx         1 S8W      -0.100700
     17 C21         12.8360   -62.0350    -2.4550 c3         1 S8W       0.174800
     18 N5          19.5730   -67.4820    -6.7640 n1         1 S8W      -0.382800
     19 N4          22.3180   -69.8720    -3.7030 nc         1 S8W      -0.614100
     20 N3          21.4070   -69.3340    -2.8640 na         1 S8W      -0.011800
     21 N2          22.3610   -70.2780    -0.9880 nu         1 S8W      -0.733600
     22 C6          20.4020   -68.8600    -0.8200 cd         1 S8W      -0.472300
     23 C5          19.4530   -68.0930    -1.5380 cd         1 S8W       0.766200
     24 C4          17.4030   -66.7000    -1.2490 ca         1 S8W       0.166600
     25 C17         15.1380   -65.1330    -1.9630 ca         1 S8W      -0.052300
     26 C18         13.8780   -64.3940    -2.2320 cx         1 S8W      -0.088400
     27 N7          13.5590   -61.2120    -1.4980 n8         1 S8W      -0.882800
     28 N           16.2400   -64.6920    -4.1160 ns         1 S8W      -0.512100
     29 O           16.4620   -64.7410    -6.3480 o          1 S8W      -0.588100
     30 C           16.0040   -66.8290    -5.2710 c3         1 S8W      -0.179100
     31 H1          18.1490   -66.1260    -3.1800 ha         1 S8W       0.179000
     32 H2          22.8840   -69.6170     0.9630 h1         1 S8W       0.091700
     33 H3          23.0720   -72.5930     0.1320 hc         1 S8W       0.084700
     34 H4          23.5990   -71.8760     1.7220 hc         1 S8W       0.084700
     35 H5          21.2250   -71.0780     2.1250 hc         1 S8W       0.084700
     36 H6          20.7300   -71.7980     0.5240 hc         1 S8W       0.084700
     37 H7          22.5230   -69.7390    -5.7650 h4         1 S8W       0.055800
     38 H8          16.3650   -66.9990     0.6140 ha         1 S8W       0.128000
     39 H9          14.4450   -65.6430    -0.0020 ha         1 S8W       0.131000
     40 H10         12.0750   -64.4980    -3.5150 hc         1 S8W       0.077200
     41 H11         13.6200   -64.8220    -4.4130 hc         1 S8W       0.077200
     42 H12         14.6160   -62.7300    -3.5050 hc         1 S8W       0.094700
     43 H13         12.5030   -61.3940    -3.2760 h1         1 S8W       0.030700
     44 H14         11.9300   -62.5050    -2.0450 h1         1 S8W       0.030700
     45 H15         23.0890   -70.6060    -1.6070 hn         1 S8W       0.480800
     46 H16         20.3460   -68.9420     0.2550 ha         1 S8W       0.158000
     47 H17         18.4730   -67.6940     0.1640 hn         1 S8W       0.443800
     48 H18         13.2060   -64.4500    -1.3800 hc         1 S8W       0.067700
     49 H19         12.9560   -60.4700    -1.1650 hn         1 S8W       0.337300
     50 H20         13.7840   -61.7690    -0.6830 hn         1 S8W       0.337300
     51 H22         16.4380   -63.7020    -4.1600 hn         1 S8W       0.324500
     52 H23         15.7220   -67.1680    -6.2650 hc         1 S8W       0.065367
     53 H24         16.9060   -67.3660    -4.9750 hc         1 S8W       0.065367
     54 H25         15.2200   -67.0990    -4.5640 hc         1 S8W       0.065367
     55 N1          18.4760   -67.4820    -0.8230 nu         1 S8W      -0.732300
@<TRIPOS>BOND
     1     1    28 1   
     2     1    29 2   
     3     1    30 1   
     4     2     3 ar  
     5     2    25 ar  
     6     2    28 1   
     7     3    24 ar  
     8     3    31 1   
     9     4    12 1   
    10     4    23 2   
    11     5    20 1   
    12     5    21 1   
    13     5    22 2   
    14     6     7 1   
    15     6     8 1   
    16     6    21 1   
    17     6    32 1   
    18     7     8 1   
    19     7    33 1   
    20     7    34 1   
    21     8    35 1   
    22     8    36 1   
    23     9    10 1   
    24     9    19 2   
    25     9    37 1   
    26    10    11 1   
    27    10    12 2   
    28    11    18 3   
    29    12    20 1   
    30    13    14 ar  
    31    13    24 ar  
    32    13    38 1   
    33    14    25 ar  
    34    14    39 1   
    35    15    16 1   
    36    15    26 1   
    37    15    40 1   
    38    15    41 1   
    39    16    17 1   
    40    16    26 1   
    41    16    42 1   
    42    17    27 1   
    43    17    43 1   
    44    17    44 1   
    45    19    20 1   
    46    21    45 1   
    47    22    23 1   
    48    22    46 1   
    49    23    55 1   
    50    24    55 1   
    51    25    26 1   
    52    26    48 1   
    53    27    49 1   
    54    27    50 1   
    55    28    51 1   
    56    30    52 1   
    57    30    53 1   
    58    30    54 1   
    59    47    55 1   
@<TRIPOS>SUBSTRUCTURE
     1 S8W         1 TEMP              0 ****  ****    0 ROOT
