@<TRIPOS>MOLECULE
S8W
   55    59     1     0     0
SMALL
No Charge or Current Charge


@<TRIPOS>ATOM
      1 C1          16.4980   -64.9050    -5.3950 c          1 S8W       0.610100
      2 C2          16.0610   -65.3120    -2.9220 ca         1 S8W      -0.012000
      3 C3          17.1590   -66.1400    -2.6010 ca         1 S8W      -0.133000
      4 N6          19.2030   -68.3680    -3.0360 nc         1 S8W      -0.771000
      5 C7          21.3780   -69.5490    -1.5030 cc         1 S8W       0.440000
      6 C8          22.6590   -70.1830     0.6010 cx         1 S8W       0.149500
      7 C9          23.3910   -71.3900     1.1300 cx         1 S8W      -0.127400
      8 C10         21.9120   -71.2310     1.3850 cx         1 S8W      -0.127400
      9 C11         21.7910   -69.9480    -4.8920 cd         1 S8W       0.460500
     10 C12         20.5580   -69.2390    -4.8620 cd         1 S8W      -0.256300
     11 C13         19.7790   -68.8510    -5.9710 ch         1 S8W       0.338700
     12 C14         20.2880   -69.0160    -3.5480 cc         1 S8W       0.512500
     13 C15         16.0810   -66.8400    -0.5600 ca         1 S8W      -0.164000
     14 C16         14.9910   -66.0060    -0.8520 ca         1 S8W      -0.081000
     15 C19         13.0810   -64.0900    -3.5890 cx         1 S8W      -0.108400
     16 C20         13.7300   -62.9640    -2.8120 cx         1 S8W      -0.100700
     17 C21         12.8840   -61.8550    -2.2010 c3         1 S8W       0.174800
     18 N5          19.1600   -68.5460    -6.9120 n1         1 S8W      -0.472000
     19 N4          22.3170   -70.1890    -3.6920 nc         1 S8W      -0.614100
     20 N3          21.3500   -69.5920    -2.8990 na         1 S8W       0.038900
     21 N2          22.4180   -70.1250    -0.8130 nu         1 S8W      -0.927200
     22 C6          20.3010   -68.9030    -0.9310 cd         1 S8W      -0.389000
     23 C5          19.2670   -68.3290    -1.7280 cd         1 S8W       0.700900
     24 C4          17.1700   -66.9230    -1.4350 ca         1 S8W       0.305000
     25 C17         14.9560   -65.2260    -2.0280 ca         1 S8W      -0.052300
     26 C18         13.7130   -64.3680    -2.2400 cx         1 S8W      -0.088400
     27 N7          13.5940   -61.2100    -1.0840 n8         1 S8W      -0.993200
     28 N           16.1240   -64.5450    -4.1110 ns         1 S8W      -0.186000
     29 O           16.7510   -64.0570    -6.2410 o          1 S8W      -0.588100
     30 C           16.4680   -66.3950    -5.7440 c3         1 S8W      -0.179100
     31 H1          18.0270   -66.1440    -3.2480 ha         1 S8W       0.161000
     32 H2          22.8430   -69.2200     1.0850 h1         1 S8W       0.091700
     33 H3          23.7020   -72.1560     0.4230 hc         1 S8W       0.084700
     34 H4          24.0690   -71.2400     1.9650 hc         1 S8W       0.084700
     35 H5          21.5950   -70.9730     2.3920 hc         1 S8W       0.084700
     36 H6          21.2290   -71.8820     0.8460 hc         1 S8W       0.084700
     37 H7          22.3220   -70.2970    -5.7690 h4         1 S8W       0.055800
     38 H8          16.0710   -67.4250     0.3550 ha         1 S8W       0.110000
     39 H9          14.1620   -65.9680    -0.1470 ha         1 S8W       0.113000
     40 H10         11.9950   -64.1090    -3.6440 hc         1 S8W       0.077200
     41 H11         13.5720   -64.4500    -4.4870 hc         1 S8W       0.077200
     42 H12         14.6720   -62.5820    -3.1930 hc         1 S8W       0.094700
     43 H13         12.6600   -61.0970    -2.9650 h1         1 S8W       0.030700
     44 H14         11.9350   -62.2650    -1.8290 h1         1 S8W       0.030700
     45 H15         23.0950   -70.5320    -1.4660 hn         1 S8W       0.536000
     46 H16         20.2480   -68.8280     0.1460 ha         1 S8W       0.140000
     47 H17         18.2420   -68.0160    -0.0960 hn         1 S8W       0.499000
     48 H18         12.9950   -64.5240    -1.4380 hc         1 S8W       0.067700
     49 H19         12.9680   -60.5270    -0.6410 hn         1 S8W       0.392500
     50 H20         13.7520   -61.9100    -0.3490 hn         1 S8W       0.392500
     51 H22         16.0010   -63.5510    -3.9740 hn         1 S8W       0.158000
     52 H23         16.4630   -66.5660    -6.8260 hc         1 S8W       0.065367
     53 H24         17.3380   -66.8820    -5.2960 hc         1 S8W       0.065367
     54 H25         15.6240   -66.8820    -5.2420 hc         1 S8W       0.065367
     55 N1          18.2420   -67.7450    -1.0730 nu         1 S8W      -0.925900
@<TRIPOS>BOND
     1     1    28 1   
     2     1    29 2   
     3     1    30 1   
     4     2     3 ar  
     5     2    25 ar  
     6     2    28 1   
     7     3    24 ar  
     8     3    31 1   
     9     4    12 1   
    10     4    23 2   
    11     5    20 1   
    12     5    21 1   
    13     5    22 2   
    14     6     7 1   
    15     6     8 1   
    16     6    21 1   
    17     6    32 1   
    18     7     8 1   
    19     7    33 1   
    20     7    34 1   
    21     8    35 1   
    22     8    36 1   
    23     9    10 1   
    24     9    19 2   
    25     9    37 1   
    26    10    11 1   
    27    10    12 2   
    28    11    18 3   
    29    12    20 1   
    30    13    14 ar  
    31    13    24 ar  
    32    13    38 1   
    33    14    25 ar  
    34    14    39 1   
    35    15    16 1   
    36    15    26 1   
    37    15    40 1   
    38    15    41 1   
    39    16    17 1   
    40    16    26 1   
    41    16    42 1   
    42    17    27 1   
    43    17    43 1   
    44    17    44 1   
    45    19    20 1   
    46    21    45 1   
    47    22    23 1   
    48    22    46 1   
    49    23    55 1   
    50    24    55 1   
    51    25    26 1   
    52    26    48 1   
    53    27    49 1   
    54    27    50 1   
    55    28    51 1   
    56    30    52 1   
    57    30    53 1   
    58    30    54 1   
    59    47    55 1   
@<TRIPOS>SUBSTRUCTURE
     1 S8W         1 TEMP              0 ****  ****    0 ROOT
