@<TRIPOS>MOLECULE
S8Y
   58    60     1     0     0
SMALL
No Charge or Current Charge


@<TRIPOS>ATOM
      1 C1           2.1680    -3.9050    -0.2060 ca         1 S8Y      -0.103000
      2 C2           2.0810    -3.2190    -1.4290 ca         1 S8Y      -0.109500
      3 C3           2.3750    -3.1900     0.9850 ca         1 S8Y      -0.109500
      4 C4           2.2030    -1.8190    -1.4610 ca         1 S8Y      -0.086500
      5 C5           2.4970    -1.7900     0.9540 ca         1 S8Y      -0.086500
      6 C6          -2.6930    -0.2660     1.4520 ca         1 S8Y      -0.135000
      7 C7          -3.4990    -1.4150     1.5680 ca         1 S8Y      -0.126000
      8 C8          -4.2200     0.6670    -0.2340 ca         1 S8Y      -0.098600
      9 C9           2.4140    -1.0950    -0.2700 ca         1 S8Y      -0.102300
     10 C10         -3.0360     0.7820     0.5520 ca         1 S8Y      -0.075300
     11 C11         -4.6430    -1.4980     0.7720 ca         1 S8Y       0.019100
     12 C12         -4.9920    -0.4990    -0.0930 ca         1 S8Y       0.071100
     13 C14          3.9400     0.8760     0.2500 c          1 S8Y       0.599100
     14 C16         -6.4670    -2.1360    -0.2940 c5         1 S8Y       0.366600
     15 C17          6.8020     0.0090     1.2440 c3         1 S8Y      -0.103433
     16 C18          6.8200     2.0690    -0.2550 c3         1 S8Y      -0.103433
     17 C19          7.2420    -0.2180    -1.2270 c3         1 S8Y      -0.103433
     18 C20         -0.3310     2.3080     2.1810 c3         1 S8Y       0.089300
     19 C21         -2.1480     2.0290     0.4310 c3         1 S8Y       0.156300
     20 C22          2.5560     0.4270    -0.3080 c3         1 S8Y       0.099000
     21 C23          6.4490     0.5680    -0.1570 c3         1 S8Y       0.139400
     22 N24          5.0240     0.3670    -0.4470 ns         1 S8Y      -0.499900
     23 N25          1.4510     1.0760     0.4250 ns         1 S8Y      -0.525900
     24 N26         -0.7330     1.8430     0.8330 n          1 S8Y      -0.417800
     25 O27         -4.9190     2.8530    -0.7160 o          1 S8Y      -0.708500
     26 O28         -4.7070     1.4950    -2.3770 o          1 S8Y      -0.708500
     27 O29          4.0560     1.6020     1.2310 o          1 S8Y      -0.622100
     28 O30         -0.1490     0.8540    -1.1650 o          1 S8Y      -0.624100
     29 O31         -5.5390    -2.5180     0.7810 os         1 S8Y      -0.370100
     30 O32         -6.1640    -0.7660    -0.7290 os         1 S8Y      -0.308100
     31 H1           2.0730    -4.9890    -0.1810 ha         1 S8Y       0.107000
     32 H2           1.9180    -3.7720    -2.3510 ha         1 S8Y       0.108500
     33 H3           2.4410    -3.7200     1.9330 ha         1 S8Y       0.108500
     34 H4           2.1310    -1.2980    -2.4140 ha         1 S8Y       0.112000
     35 H5           2.6570    -1.2460     1.8830 ha         1 S8Y       0.112000
     36 H6          -1.8020    -0.1940     2.0690 ha         1 S8Y       0.090000
     37 H7          -3.2410    -2.2140     2.2590 ha         1 S8Y       0.103000
     38 H22          2.5220     0.7670    -1.3510 h1         1 S8Y       0.076700
     39 H211        -2.1590     2.3810    -0.6090 h1         1 S8Y       0.092200
     40 H212        -2.5950     2.8330     1.0320 h1         1 S8Y       0.092200
     41 H24          4.7930    -0.2400    -1.2240 hn         1 S8Y       0.315500
     42 H25          1.6450     1.4450     1.3460 hn         1 S8Y       0.330500
     43 H161        -6.3250    -2.8150    -1.1430 h2         1 S8Y       0.040700
     44 H162        -7.5000    -2.1920     0.0680 h2         1 S8Y       0.040700
     45 H171         6.3080     0.5750     2.0420 hc         1 S8Y       0.043256
     46 H172         6.4950    -1.0410     1.3330 hc         1 S8Y       0.043256
     47 H173         7.8820     0.0620     1.4220 hc         1 S8Y       0.043256
     48 H181         7.9020     2.2090    -0.1390 hc         1 S8Y       0.043256
     49 H182         6.5290     2.4800    -1.2290 hc         1 S8Y       0.043256
     50 H183         6.3270     2.6600     0.5250 hc         1 S8Y       0.043256
     51 H191         6.9980    -1.2870    -1.1900 hc         1 S8Y       0.043256
     52 H192         7.0110     0.1480    -2.2350 hc         1 S8Y       0.043256
     53 H193         8.3230    -0.1130    -1.0700 hc         1 S8Y       0.043256
     54 H201         0.4180     3.1060     2.0900 h1         1 S8Y       0.031367
     55 H202        -1.1980     2.6990     2.7290 h1         1 S8Y       0.031367
     56 H203         0.0930     1.4730     2.7530 h1         1 S8Y       0.031367
     57 C15          0.1740     1.2250    -0.0480 c          1 S8Y       0.650100
     58 C13         -4.6640     1.7500    -1.1810 c          1 S8Y       0.721600
@<TRIPOS>BOND
     1     1     2 ar  
     2     1     3 ar  
     3     1    31 1   
     4     2     4 ar  
     5     2    32 1   
     6     3     5 ar  
     7     3    33 1   
     8     4     9 ar  
     9     4    34 1   
    10     5     9 ar  
    11     5    35 1   
    12     6     7 ar  
    13     6    10 ar  
    14     6    36 1   
    15     7    11 ar  
    16     7    37 1   
    17     8    10 ar  
    18     8    12 ar  
    19     8    58 1   
    20     9    20 1   
    21    10    19 1   
    22    11    12 ar  
    23    11    29 1   
    24    12    30 1   
    25    13    20 1   
    26    13    22 1   
    27    13    27 2   
    28    14    29 1   
    29    14    30 1   
    30    14    43 1   
    31    14    44 1   
    32    15    21 1   
    33    15    45 1   
    34    15    46 1   
    35    15    47 1   
    36    16    21 1   
    37    16    48 1   
    38    16    49 1   
    39    16    50 1   
    40    17    21 1   
    41    17    51 1   
    42    17    52 1   
    43    17    53 1   
    44    18    24 1   
    45    18    54 1   
    46    18    55 1   
    47    18    56 1   
    48    19    24 1   
    49    19    39 1   
    50    19    40 1   
    51    20    23 1   
    52    20    38 1   
    53    21    22 1   
    54    22    41 1   
    55    23    42 1   
    56    23    57 1   
    57    24    57 1   
    58    25    58 1   
    59    26    58 1   
    60    28    57 2   
@<TRIPOS>SUBSTRUCTURE
     1 S8Y         1 TEMP              0 ****  ****    0 ROOT
