@<TRIPOS>MOLECULE
S8Y
   58    60     1     0     0
SMALL
abcg2


@<TRIPOS>ATOM
      1 C1           1.5380    -3.5410    -0.5010 ca         1 S8Y      -0.103000
      2 C2           2.0360    -2.9470    -1.6530 ca         1 S8Y      -0.109500
      3 C3           1.3560    -2.7730     0.6430 ca         1 S8Y      -0.109500
      4 C4           2.3440    -1.5930    -1.6610 ca         1 S8Y      -0.086500
      5 C5           1.6720    -1.4220     0.6340 ca         1 S8Y      -0.086500
      6 C6          -1.9780    -0.2150     0.9790 ca         1 S8Y      -0.135000
      7 C7          -2.5140    -1.4570     1.3380 ca         1 S8Y      -0.126000
      8 C8          -4.0200     0.4560    -0.1530 ca         1 S8Y      -0.098600
      9 C9           2.1630    -0.8210    -0.5210 ca         1 S8Y      -0.102300
     10 C10         -2.6960     0.7330     0.2630 ca         1 S8Y      -0.075300
     11 C11         -3.7980    -1.7070     0.9350 ca         1 S8Y       0.019100
     12 C12         -4.5170    -0.7800     0.1970 ca         1 S8Y       0.071100
     13 C14          3.8210     0.8160     0.2840 c          1 S8Y       0.599100
     14 C16         -5.8620    -2.4650     0.7190 c5         1 S8Y       0.366600
     15 C17          6.3250    -0.6810     1.2740 c3         1 S8Y      -0.103433
     16 C18          6.7830     1.7190     0.6720 c3         1 S8Y      -0.103433
     17 C19          7.1690    -0.0920    -0.9970 c3         1 S8Y      -0.103433
     18 C20         -0.3820     2.7210     1.6080 c3         1 S8Y       0.089300
     19 C21         -2.0540     2.0590    -0.1090 c3         1 S8Y       0.156300
     20 C22          2.5260     0.6530    -0.5220 c3         1 S8Y       0.099000
     21 C23          6.2850     0.3670     0.1610 c3         1 S8Y       0.139400
     22 N24          4.9260     0.4850    -0.3860 ns         1 S8Y      -0.499900
     23 N25          1.5240     1.4840     0.0840 ns         1 S8Y      -0.525900
     24 N26         -0.6710     2.1890     0.2930 n          1 S8Y      -0.417800
     25 O27         -4.8830     2.6120    -0.5780 o          1 S8Y      -0.708500
     26 O28         -5.5280     0.9300    -1.8910 o          1 S8Y      -0.708500
     27 O29          3.7850     1.1770     1.4520 o          1 S8Y      -0.622100
     28 O30          0.0310     1.0710    -1.5560 o          1 S8Y      -0.624100
     29 O31         -4.5500    -2.8220     1.1270 os         1 S8Y      -0.370100
     30 O32         -5.7420    -1.3030    -0.0830 os         1 S8Y      -0.308100
     31 H1           1.2900    -4.5940    -0.4950 ha         1 S8Y       0.107000
     32 H2           2.1760    -3.5370    -2.5500 ha         1 S8Y       0.108500
     33 H3           0.9670    -3.2260     1.5460 ha         1 S8Y       0.108500
     34 H4           2.7190    -1.1320    -2.5670 ha         1 S8Y       0.112000
     35 H5           1.5270    -0.8360     1.5340 ha         1 S8Y       0.112000
     36 H6          -0.9630    -0.0070     1.2850 ha         1 S8Y       0.090000
     37 H7          -1.9350    -2.1770     1.9000 ha         1 S8Y       0.103000
     38 H22          2.7020     0.9690    -1.5550 h1         1 S8Y       0.076700
     39 H211        -2.1330     2.2140    -1.1850 h1         1 S8Y       0.092200
     40 H212        -2.6130     2.8740     0.3470 h1         1 S8Y       0.092200
     41 H24          4.8110     0.2160    -1.3510 hn         1 S8Y       0.315500
     42 H25          1.7100     1.7660     1.0340 hn         1 S8Y       0.330500
     43 H161        -6.3010    -3.2740     0.1350 h2         1 S8Y       0.040700
     44 H162        -6.4800    -2.2510     1.5990 h2         1 S8Y       0.040700
     45 H171         5.7450    -0.3730     2.1420 hc         1 S8Y       0.043256
     46 H172         5.9360    -1.6370     0.9200 hc         1 S8Y       0.043256
     47 H173         7.3540    -0.8360     1.6010 hc         1 S8Y       0.043256
     48 H181         7.8240     1.6340     0.9890 hc         1 S8Y       0.043256
     49 H182         6.7320     2.4730    -0.1150 hc         1 S8Y       0.043256
     50 H183         6.2020     2.0680     1.5230 hc         1 S8Y       0.043256
     51 H191         6.8390    -1.0540    -1.3950 hc         1 S8Y       0.043256
     52 H192         7.1670     0.6350    -1.8120 hc         1 S8Y       0.043256
     53 H193         8.1970    -0.2080    -0.6570 hc         1 S8Y       0.043256
     54 H201         0.4800     3.3890     1.5860 h1         1 S8Y       0.031367
     55 H202        -1.2310     3.3120     1.9420 h1         1 S8Y       0.031367
     56 H203        -0.2040     1.9460     2.3600 h1         1 S8Y       0.031367
     57 C15          0.2750     1.5500    -0.4550 c          1 S8Y       0.650100
     58 C13         -4.8860     1.4240    -0.9480 c          1 S8Y       0.721600
@<TRIPOS>BOND
     1     1     2 ar  
     2     1     3 ar  
     3     1    31 1   
     4     2     4 ar  
     5     2    32 1   
     6     3     5 ar  
     7     3    33 1   
     8     4     9 ar  
     9     4    34 1   
    10     5     9 ar  
    11     5    35 1   
    12     6     7 ar  
    13     6    10 ar  
    14     6    36 1   
    15     7    11 ar  
    16     7    37 1   
    17     8    10 ar  
    18     8    12 ar  
    19     8    58 1   
    20     9    20 1   
    21    10    19 1   
    22    11    12 ar  
    23    11    29 1   
    24    12    30 1   
    25    13    20 1   
    26    13    22 1   
    27    13    27 2   
    28    14    29 1   
    29    14    30 1   
    30    14    43 1   
    31    14    44 1   
    32    15    21 1   
    33    15    45 1   
    34    15    46 1   
    35    15    47 1   
    36    16    21 1   
    37    16    48 1   
    38    16    49 1   
    39    16    50 1   
    40    17    21 1   
    41    17    51 1   
    42    17    52 1   
    43    17    53 1   
    44    18    24 1   
    45    18    54 1   
    46    18    55 1   
    47    18    56 1   
    48    19    24 1   
    49    19    39 1   
    50    19    40 1   
    51    20    23 1   
    52    20    38 1   
    53    21    22 1   
    54    22    41 1   
    55    23    42 1   
    56    23    57 1   
    57    24    57 1   
    58    25    58 1   
    59    26    58 1   
    60    28    57 2   
@<TRIPOS>SUBSTRUCTURE
     1 S8Y         1 TEMP              0 ****  ****    0 ROOT
