@<TRIPOS>MOLECULE
S8Z
   53    56     1     0     0
SMALL
bcc


@<TRIPOS>ATOM
      1 C1           8.2320     2.5430    -0.7470 c3         1 S8Z       0.119700
      2 O2           7.1090     1.7160    -0.5510 os         1 S8Z      -0.394600
      3 C3           6.4780     1.9770     0.6770 c3         1 S8Z       0.225500
      4 C4           5.3230     1.1020     0.8230 c1         1 S8Z      -0.129100
      5 C5           4.3630     0.3870     0.9580 cg         1 S8Z      -0.093000
      6 C6           3.2280    -0.4630     1.1180 ca         1 S8Z       0.020000
      7 C7           3.2510    -1.5030     2.0520 ca         1 S8Z      -0.099000
      8 C8           2.1430    -2.3170     2.1930 ca         1 S8Z      -0.136000
      9 C9           1.0070    -2.1080     1.4180 ca         1 S8Z      -0.100000
     10 C10          0.9680    -1.0740     0.4890 ca         1 S8Z      -0.072300
     11 C11          2.0870    -0.2610     0.3440 ca         1 S8Z      -0.071000
     12 C12         -0.2140    -0.8450    -0.4480 c5         1 S8Z       0.216500
     13 C13         -1.4360    -1.6650    -0.0390 c2         1 S8Z       0.603200
     14 N14         -2.1430    -1.5320     0.9990 n2         1 S8Z      -0.604900
     15 C15         -3.2440    -2.4600     1.1660 c6         1 S8Z       0.065800
     16 C16         -3.0200    -3.7730     0.4420 c6         1 S8Z       0.386600
     17 C17         -2.6390    -3.5810    -1.0140 c6         1 S8Z       0.182800
     18 N18         -1.5880    -2.5940    -1.0340 nh         1 S8Z      -0.794600
     19 C19         -0.6370    -2.3480    -2.0110 c2         1 S8Z       0.827100
     20 N20          0.1480    -1.3650    -1.7580 n2         1 S8Z      -0.689900
     21 N21         -0.5720    -3.1580    -3.0840 nv         1 S8Z      -0.913800
     22 F22         -4.1250    -4.5590     0.5180 f          1 S8Z      -0.228800
     23 F23         -2.0140    -4.4590     1.0670 f          1 S8Z      -0.228800
     24 C24         -0.6010     0.6240    -0.5000 ca         1 S8Z      -0.070300
     25 C25         -0.7880     1.2760    -1.7100 ca         1 S8Z      -0.093500
     26 C26         -1.1710     2.6110    -1.7470 ca         1 S8Z      -0.130000
     27 C27         -1.3620     3.2950    -0.5600 ca         1 S8Z       0.089100
     28 C28         -1.1770     2.6630     0.6610 ca         1 S8Z      -0.130000
     29 C29         -0.7940     1.3320     0.6840 ca         1 S8Z      -0.093500
     30 O30         -1.6760     4.6440    -0.5890 os         1 S8Z      -0.370900
     31 C31         -2.9850     4.9890    -0.5980 c3         1 S8Z       0.605700
     32 F32         -3.6250     4.4630    -1.6700 f          1 S8Z      -0.257300
     33 F33         -3.6320     4.4960     0.4850 f          1 S8Z      -0.257300
     34 H11C         7.9620     3.6050    -0.7590 h1         1 S8Z       0.030367
     35 H12C         8.9900     2.3950     0.0310 h1         1 S8Z       0.030367
     36 H13C         8.6700     2.2860    -1.7100 h1         1 S8Z       0.030367
     37 H31C         7.1630     1.8160     1.5210 h1         1 S8Z       0.037700
     38 H32C         6.1480     3.0240     0.7410 h1         1 S8Z       0.037700
     39 H7           4.1320    -1.6650     2.6580 ha         1 S8Z       0.137000
     40 H11          2.0800     0.5470    -0.3770 ha         1 S8Z       0.150000
     41 H8           2.1550    -3.1240     2.9130 ha         1 S8Z       0.134000
     42 H9           0.1580    -2.7630     1.5560 ha         1 S8Z       0.140000
     43 H151        -3.3920    -2.6570     2.2300 h1         1 S8Z       0.088200
     44 H152        -4.1710    -2.0100     0.7980 h1         1 S8Z       0.088200
     45 H171        -2.2900    -4.5250    -1.4380 h1         1 S8Z       0.073700
     46 H172        -3.5110    -3.2450    -1.5800 h1         1 S8Z       0.073700
     47 H211        -1.3980    -3.6490    -3.3850 hn         1 S8Z       0.432300
     48 H212         0.0240    -2.8500    -3.8350 hn         1 S8Z       0.432300
     49 H25         -0.6290     0.7440    -2.6380 ha         1 S8Z       0.150500
     50 H29         -0.6410     0.8480     1.6390 ha         1 S8Z       0.150500
     51 H26         -1.2970     3.1140    -2.6970 ha         1 S8Z       0.148000
     52 H28         -1.3100     3.2070     1.5860 ha         1 S8Z       0.148000
     53 H31         -3.0640     6.0730    -0.6150 h3         1 S8Z       0.102700
@<TRIPOS>BOND
     1     1     2 1   
     2     1    34 1   
     3     1    35 1   
     4     1    36 1   
     5     2     3 1   
     6     3     4 1   
     7     3    37 1   
     8     3    38 1   
     9     4     5 3   
    10     5     6 1   
    11     6     7 ar  
    12     6    11 ar  
    13     7     8 ar  
    14     7    39 1   
    15     8     9 ar  
    16     8    41 1   
    17     9    10 ar  
    18     9    42 1   
    19    10    11 ar  
    20    10    12 1   
    21    11    40 1   
    22    12    13 1   
    23    12    20 1   
    24    12    24 1   
    25    13    14 2   
    26    13    18 1   
    27    14    15 1   
    28    15    16 1   
    29    15    43 1   
    30    15    44 1   
    31    16    17 1   
    32    16    22 1   
    33    16    23 1   
    34    17    18 1   
    35    17    45 1   
    36    17    46 1   
    37    18    19 1   
    38    19    20 2   
    39    19    21 1   
    40    21    47 1   
    41    21    48 1   
    42    24    25 ar  
    43    24    29 ar  
    44    25    26 ar  
    45    25    49 1   
    46    26    27 ar  
    47    26    51 1   
    48    27    28 ar  
    49    27    30 1   
    50    28    29 ar  
    51    28    52 1   
    52    29    50 1   
    53    30    31 1   
    54    31    32 1   
    55    31    33 1   
    56    31    53 1   
@<TRIPOS>SUBSTRUCTURE
     1 S8Z         1 TEMP              0 ****  ****    0 ROOT
