@<TRIPOS>MOLECULE
S8Z
   53    56     1     0     0
SMALL
No Charge or Current Charge


@<TRIPOS>ATOM
      1 C1           8.2280     2.9010    -0.6750 c3         1 S8Z       0.142900
      2 O2           7.1410     1.9860    -0.4660 os         1 S8Z      -0.441000
      3 C3           6.3410     2.2690     0.6950 c3         1 S8Z       0.248700
      4 C4           5.2750     1.2650     0.7860 c1         1 S8Z      -0.129100
      5 C5           4.3750     0.4550     0.8900 cg         1 S8Z      -0.093000
      6 C6           3.3050    -0.4920     1.0090 ca         1 S8Z       0.020000
      7 C7           3.4380    -1.6030     1.8580 ca         1 S8Z      -0.081000
      8 C8           2.3910    -2.5310     1.9620 ca         1 S8Z      -0.118000
      9 C9           1.2060    -2.3480     1.2280 ca         1 S8Z      -0.082000
     10 C10          1.0450    -1.2240     0.3820 ca         1 S8Z      -0.072300
     11 C11          2.1190    -0.3110     0.2740 ca         1 S8Z      -0.053000
     12 C12         -0.2330    -0.9810    -0.4520 c5         1 S8Z       0.216500
     13 C13         -1.4040    -1.8420     0.0810 c2         1 S8Z       0.603200
     14 N14         -2.1640    -1.7020     1.1190 n2         1 S8Z      -0.604900
     15 C15         -3.2610    -2.6690     1.3900 c6         1 S8Z       0.065800
     16 C16         -3.1650    -3.9870     0.5760 c6         1 S8Z       0.144000
     17 C17         -2.7270    -3.7270    -0.8850 c6         1 S8Z       0.182800
     18 N18         -1.5950    -2.7590    -0.9090 nh         1 S8Z      -0.794600
     19 C19         -0.8020    -2.4810    -1.9570 c2         1 S8Z       0.827100
     20 N20         -0.0090    -1.4970    -1.8530 n2         1 S8Z      -0.689900
     21 N21         -0.9650    -3.2090    -3.0550 nv         1 S8Z      -1.024200
     22 F22         -4.4070    -4.6450     0.5910 f          1 S8Z      -0.107500
     23 F23         -2.2440    -4.8540     1.1970 f          1 S8Z      -0.107500
     24 C24         -0.6910     0.4960    -0.3900 ca         1 S8Z      -0.070300
     25 C25         -1.1130     1.1980    -1.5430 ca         1 S8Z      -0.075500
     26 C26         -1.5270     2.5400    -1.4640 ca         1 S8Z      -0.112000
     27 C27         -1.5310     3.2110    -0.2220 ca         1 S8Z       0.089100
     28 C28         -1.1200     2.5190     0.9270 ca         1 S8Z      -0.112000
     29 C29         -0.7070     1.1790     0.8470 ca         1 S8Z      -0.075500
     30 O30         -1.9240     4.5300    -0.0630 os         1 S8Z      -0.394100
     31 C31         -2.3740     5.3810    -1.1410 c3         1 S8Z       0.386300
     32 F32         -1.4190     5.5220    -2.0900 f          1 S8Z      -0.136000
     33 F33         -3.4720     4.8710    -1.7470 f          1 S8Z      -0.136000
     34 H11C         7.8560     3.9250    -0.8080 h1         1 S8Z       0.030367
     35 H12C         8.9190     2.8890     0.1780 h1         1 S8Z       0.030367
     36 H13C         8.7920     2.6240    -1.5750 h1         1 S8Z       0.030367
     37 H31C         6.9490     2.2300     1.6080 h1         1 S8Z       0.037700
     38 H32C         5.8870     3.2670     0.6220 h1         1 S8Z       0.037700
     39 H7           4.3520    -1.7510     2.4300 ha         1 S8Z       0.119000
     40 H11          2.0320     0.5470    -0.3890 ha         1 S8Z       0.132000
     41 H8           2.4980    -3.3970     2.6120 ha         1 S8Z       0.116000
     42 H9           0.4240    -3.0970     1.3250 ha         1 S8Z       0.122000
     43 H151        -3.2600    -2.9150     2.4620 h1         1 S8Z       0.088200
     44 H152        -4.2210    -2.1770     1.1730 h1         1 S8Z       0.088200
     45 H171        -2.4460    -4.6840    -1.3520 h1         1 S8Z       0.073700
     46 H172        -3.5830    -3.3190    -1.4430 h1         1 S8Z       0.073700
     47 H211        -1.9370    -3.4080    -3.2270 hn         1 S8Z       0.487500
     48 H212        -0.4890    -2.7860    -3.8390 hn         1 S8Z       0.487500
     49 H25         -1.1240     0.7110    -2.5140 ha         1 S8Z       0.132500
     50 H29         -0.4000     0.6670     1.7570 ha         1 S8Z       0.132500
     51 H26         -1.8390     3.0350    -2.3780 ha         1 S8Z       0.130000
     52 H28         -1.1230     3.0260     1.8890 ha         1 S8Z       0.130000
     53 H31         -2.6240     6.3750    -0.7550 h3         1 S8Z       0.102700
@<TRIPOS>BOND
     1     1     2 1   
     2     1    34 1   
     3     1    35 1   
     4     1    36 1   
     5     2     3 1   
     6     3     4 1   
     7     3    37 1   
     8     3    38 1   
     9     4     5 3   
    10     5     6 1   
    11     6     7 ar  
    12     6    11 ar  
    13     7     8 ar  
    14     7    39 1   
    15     8     9 ar  
    16     8    41 1   
    17     9    10 ar  
    18     9    42 1   
    19    10    11 ar  
    20    10    12 1   
    21    11    40 1   
    22    12    13 1   
    23    12    20 1   
    24    12    24 1   
    25    13    14 2   
    26    13    18 1   
    27    14    15 1   
    28    15    16 1   
    29    15    43 1   
    30    15    44 1   
    31    16    17 1   
    32    16    22 1   
    33    16    23 1   
    34    17    18 1   
    35    17    45 1   
    36    17    46 1   
    37    18    19 1   
    38    19    20 2   
    39    19    21 1   
    40    21    47 1   
    41    21    48 1   
    42    24    25 ar  
    43    24    29 ar  
    44    25    26 ar  
    45    25    49 1   
    46    26    27 ar  
    47    26    51 1   
    48    27    28 ar  
    49    27    30 1   
    50    28    29 ar  
    51    28    52 1   
    52    29    50 1   
    53    30    31 1   
    54    31    32 1   
    55    31    33 1   
    56    31    53 1   
@<TRIPOS>SUBSTRUCTURE
     1 S8Z         1 TEMP              0 ****  ****    0 ROOT
