@<TRIPOS>MOLECULE
S90
   52    54     1     0     0
SMALL
No Charge or Current Charge


@<TRIPOS>ATOM
      1 F13          1.8310    -3.6720    -1.1590 f          1 S90      -0.186000
      2 C13          1.4730    -2.3960    -0.8980 ca         1 S90       0.210000
      3 C14          2.4590    -1.4450    -0.6130 ca         1 S90      -0.241000
      4 C15          2.1000    -0.1140    -0.3430 ca         1 S90       0.367000
      5 N17          3.0920     0.8570    -0.0570 nh         1 S90      -0.807400
      6 C21          2.9390     2.2620    -0.4850 cx         1 S90       0.164500
      7 C23          2.4390     2.6060    -1.8680 cx         1 S90      -0.133900
      8 C22          3.8800     2.8580    -1.5030 cx         1 S90      -0.133900
      9 C17          4.1660     0.4700     0.9010 c3         1 S90       0.228800
     10 C18          5.5740     0.2750     0.2680 c3         1 S90       0.132800
     11 N18          6.5830    -0.1720     1.2630 n7         1 S90      -0.859400
     12 C19          7.9300    -0.4260     0.7150 c3         1 S90       0.145100
     13 C12          0.1200    -2.0370    -0.9190 ca         1 S90      -0.206000
     14 C11         -0.2580    -0.7110    -0.6540 ca         1 S90      -0.014300
     15 C16          0.7370     0.2410    -0.3660 ca         1 S90      -0.199000
     16 C09         -1.7260    -0.3100    -0.6660 c3         1 S90      -0.031100
     17 C08         -2.3590    -0.3820     0.7410 c3         1 S90      -0.124700
     18 C06         -3.8340    -0.0090     0.7360 ca         1 S90       0.397300
     19 N01         -4.1430     1.2490     1.1230 nb         1 S90      -0.754000
     20 C02         -5.4260     1.5780     1.1170 ca         1 S90       0.598900
     21 N02         -5.6010     2.8400     1.5130 nv         1 S90      -1.053900
     22 C03         -6.4720     0.7360     0.7360 ca         1 S90      -0.232000
     23 C04         -6.1620    -0.5700     0.3280 ca         1 S90       0.001700
     24 C07         -7.2480    -1.5450    -0.0970 c3         1 S90      -0.053800
     25 C05         -4.8080    -0.9420     0.3330 ca         1 S90      -0.214000
     26 H14          3.5000    -1.7460    -0.6170 ha         1 S90       0.135000
     27 H12         -0.6320    -2.7910    -1.1410 ha         1 S90       0.129000
     28 H16          0.4440     1.2620    -0.1450 ha         1 S90       0.121000
     29 H21          2.6160     2.9250     0.3200 h1         1 S90       0.078700
     30 H171         4.2420     1.2410     1.6790 h1         1 S90       0.054200
     31 H172         3.8890    -0.4570     1.4220 h1         1 S90       0.054200
     32 H231         2.2270     1.7900    -2.5540 hc         1 S90       0.077950
     33 H232         1.7800     3.4650    -1.9630 hc         1 S90       0.077950
     34 H221         4.1970     3.8860    -1.3530 hc         1 S90       0.077950
     35 H222         4.6280     2.2100    -1.9530 hc         1 S90       0.077950
     36 H181         5.4920    -0.4630    -0.5420 h1         1 S90       0.038700
     37 H182         5.8900     1.2240    -0.1850 h1         1 S90       0.038700
     38 H18          6.6660     0.5530     1.9890 hn         1 S90       0.403000
     39 H191         7.8970    -1.2060    -0.0580 h1         1 S90       0.031033
     40 H192         8.3500     0.4850     0.2670 h1         1 S90       0.031033
     41 H193         8.6120    -0.7620     1.5080 h1         1 S90       0.031033
     42 H091        -1.8340     0.7100    -1.0560 hc         1 S90       0.055200
     43 H092        -2.2890    -0.9580    -1.3490 hc         1 S90       0.055200
     44 H081        -2.2410    -1.3990     1.1340 hc         1 S90       0.058200
     45 H082        -1.8000     0.2730     1.4200 hc         1 S90       0.058200
     46 H05         -4.5100    -1.9410     0.0290 ha         1 S90       0.122000
     47 H021        -4.7560     3.3980     1.5290 hn         1 S90       0.467000
     48 H022        -6.4520     3.3100     1.2260 hn         1 S90       0.467000
     49 H03         -7.4990     1.0870     0.7590 ha         1 S90       0.118000
     50 H071        -6.8840    -2.2350    -0.8670 hc         1 S90       0.046700
     51 H072        -7.5890    -2.1430     0.7560 hc         1 S90       0.046700
     52 H073        -8.1180    -1.0200    -0.5090 hc         1 S90       0.046700
@<TRIPOS>BOND
     1     1     2 1   
     2     2     3 ar  
     3     2    13 ar  
     4     3     4 ar  
     5     3    26 1   
     6     4     5 1   
     7     4    15 ar  
     8     5     6 1   
     9     5     9 1   
    10     6     7 1   
    11     6     8 1   
    12     6    29 1   
    13     7     8 1   
    14     7    32 1   
    15     7    33 1   
    16     8    34 1   
    17     8    35 1   
    18     9    10 1   
    19     9    30 1   
    20     9    31 1   
    21    10    11 1   
    22    10    36 1   
    23    10    37 1   
    24    11    12 1   
    25    11    38 1   
    26    12    39 1   
    27    12    40 1   
    28    12    41 1   
    29    13    14 ar  
    30    13    27 1   
    31    14    15 ar  
    32    14    16 1   
    33    15    28 1   
    34    16    17 1   
    35    16    42 1   
    36    16    43 1   
    37    17    18 1   
    38    17    44 1   
    39    17    45 1   
    40    18    19 ar  
    41    18    25 ar  
    42    19    20 ar  
    43    20    21 1   
    44    20    22 ar  
    45    21    47 1   
    46    21    48 1   
    47    22    23 ar  
    48    22    49 1   
    49    23    24 1   
    50    23    25 ar  
    51    24    50 1   
    52    24    51 1   
    53    24    52 1   
    54    25    46 1   
@<TRIPOS>SUBSTRUCTURE
     1 S90         1 TEMP              0 ****  ****    0 ROOT
