@<TRIPOS>MOLECULE
S90
   52    54     1     0     0
SMALL
bcc


@<TRIPOS>ATOM
      1 F13          1.8930    -3.7030    -0.1990 f          1 S90      -0.150900
      2 C13          1.5340    -2.4050    -0.1620 ca         1 S90       0.174900
      3 C14          2.5170    -1.4800     0.1160 ca         1 S90      -0.259000
      4 C15          2.1810    -0.1150     0.1580 ca         1 S90       0.228600
      5 N17          3.1290     0.8430     0.4230 nh         1 S90      -0.669000
      6 C21          2.7320     2.2090     0.5400 cx         1 S90       0.164500
      7 C23          2.3680     2.9850    -0.6900 cx         1 S90      -0.133900
      8 C22          3.6460     3.2760     0.0300 cx         1 S90      -0.133900
      9 C17          4.4420     0.4710     0.9140 c3         1 S90       0.228800
     10 C18          5.4300     0.1350    -0.2000 c3         1 S90       0.132800
     11 N18          6.7130    -0.2280     0.3600 n7         1 S90      -0.804200
     12 C19          7.6700    -0.6350    -0.6490 c3         1 S90       0.145100
     13 C12          0.2180    -2.0770    -0.4090 ca         1 S90      -0.224000
     14 C11         -0.1240    -0.7270    -0.3630 ca         1 S90      -0.014300
     15 C16          0.8370     0.2320    -0.0790 ca         1 S90      -0.217000
     16 C09         -1.5540    -0.3170    -0.5780 c3         1 S90      -0.031100
     17 C08         -2.3980    -0.5010     0.6910 c3         1 S90      -0.124700
     18 C06         -3.8240    -0.0850     0.4710 ca         1 S90       0.462600
     19 N01         -4.0340     1.2230     0.2990 nb         1 S90      -0.754000
     20 C02         -5.2710     1.6460     0.0670 ca         1 S90       0.664200
     21 N02         -5.4540     2.9940    -0.0540 nv         1 S90      -0.943500
     22 C03         -6.3650     0.7650    -0.0060 ca         1 S90      -0.315300
     23 C04         -6.1510    -0.5860     0.1720 ca         1 S90       0.001700
     24 C07         -7.2750    -1.5730     0.1000 c3         1 S90      -0.053800
     25 C05         -4.8420    -1.0190     0.4190 ca         1 S90      -0.297300
     26 H14          3.5240    -1.8350     0.2800 ha         1 S90       0.153000
     27 H12         -0.5170    -2.8410    -0.6300 ha         1 S90       0.147000
     28 H16          0.5290     1.2670    -0.0430 ha         1 S90       0.139000
     29 H21          2.1710     2.4570     1.4410 h1         1 S90       0.078700
     30 H171         4.8290     1.3060     1.5000 h1         1 S90       0.054200
     31 H172         4.3690    -0.3750     1.6050 h1         1 S90       0.054200
     32 H231         2.4370     2.4650    -1.6370 hc         1 S90       0.077950
     33 H232         1.5520     3.6920    -0.6210 hc         1 S90       0.077950
     34 H221         3.7200     4.1840     0.6150 hc         1 S90       0.077950
     35 H222         4.5700     2.9790    -0.4480 hc         1 S90       0.077950
     36 H181         5.0550    -0.7130    -0.7800 h1         1 S90       0.038700
     37 H182         5.4870     0.9800    -0.9060 h1         1 S90       0.038700
     38 H18          7.0880     0.5680     0.8620 hn         1 S90       0.347800
     39 H191         7.3490    -1.5710    -1.1100 h1         1 S90       0.031033
     40 H192         7.8100     0.0970    -1.4570 h1         1 S90       0.031033
     41 H193         8.6410    -0.8120    -0.1860 h1         1 S90       0.031033
     42 H091        -1.6030     0.7290    -0.8860 hc         1 S90       0.055200
     43 H092        -1.9920    -0.9090    -1.3860 hc         1 S90       0.055200
     44 H081        -2.3610    -1.5460     1.0070 hc         1 S90       0.058200
     45 H082        -1.9640     0.0950     1.4980 hc         1 S90       0.058200
     46 H05         -4.6260    -2.0710     0.5620 ha         1 S90       0.140000
     47 H021        -4.6330     3.5320    -0.2780 hn         1 S90       0.411800
     48 H022        -6.2890     3.3080    -0.5200 hn         1 S90       0.411800
     49 H03         -7.3590     1.1490    -0.2020 ha         1 S90       0.136000
     50 H071        -7.1220    -2.2750    -0.7220 hc         1 S90       0.046700
     51 H072        -7.3330    -2.1630     1.0150 hc         1 S90       0.046700
     52 H073        -8.2360    -1.0840    -0.0500 hc         1 S90       0.046700
@<TRIPOS>BOND
     1     1     2 1   
     2     2     3 ar  
     3     2    13 ar  
     4     3     4 ar  
     5     3    26 1   
     6     4     5 1   
     7     4    15 ar  
     8     5     6 1   
     9     5     9 1   
    10     6     7 1   
    11     6     8 1   
    12     6    29 1   
    13     7     8 1   
    14     7    32 1   
    15     7    33 1   
    16     8    34 1   
    17     8    35 1   
    18     9    10 1   
    19     9    30 1   
    20     9    31 1   
    21    10    11 1   
    22    10    36 1   
    23    10    37 1   
    24    11    12 1   
    25    11    38 1   
    26    12    39 1   
    27    12    40 1   
    28    12    41 1   
    29    13    14 ar  
    30    13    27 1   
    31    14    15 ar  
    32    14    16 1   
    33    15    28 1   
    34    16    17 1   
    35    16    42 1   
    36    16    43 1   
    37    17    18 1   
    38    17    44 1   
    39    17    45 1   
    40    18    19 ar  
    41    18    25 ar  
    42    19    20 ar  
    43    20    21 1   
    44    20    22 ar  
    45    21    47 1   
    46    21    48 1   
    47    22    23 ar  
    48    22    49 1   
    49    23    24 1   
    50    23    25 ar  
    51    24    50 1   
    52    24    51 1   
    53    24    52 1   
    54    25    46 1   
@<TRIPOS>SUBSTRUCTURE
     1 S90         1 TEMP              0 ****  ****    0 ROOT
