@<TRIPOS>MOLECULE
S91
   46    48     1     0     0
SMALL
bcc


@<TRIPOS>ATOM
      1 C1          -5.2450     0.2410     0.4740 ca         1 S91       0.004700
      2 C2          -4.5110     1.3710     0.8330 ca         1 S91      -0.111500
      3 C3          -3.1290     1.3800     0.7780 ca         1 S91      -0.152500
      4 C4          -2.4200     0.2540     0.3480 ca         1 S91       0.102600
      5 C5          -3.1390    -0.8800    -0.0240 ca         1 S91      -0.152500
      6 C6          -4.5270    -0.8700     0.0500 ca         1 S91      -0.111500
      7 C7          -6.7390     0.2320     0.5260 c3         1 S91      -0.191100
      8 C8          -7.4360     0.9640    -0.6490 c          1 S91       0.935600
      9 O1          -8.6590     0.7480    -0.7590 o          1 S91      -0.829800
     10 O2          -6.7410     1.7120    -1.3590 o          1 S91      -0.829800
     11 N1           1.1810    -0.0670     0.1970 nb         1 S91      -0.876000
     12 C9           2.2000    -0.9090     0.1400 ca         1 S91       0.801200
     13 C10          1.9720    -2.3230     0.1040 ca         1 S91      -0.547200
     14 C11          0.6420    -2.6930     0.1990 ca         1 S91       0.530200
     15 N2          -0.3780    -1.8540     0.2690 nb         1 S91      -0.782000
     16 C12         -0.0550    -0.5620     0.2450 ca         1 S91       0.967900
     17 O3           4.2500    -2.9750     0.1380 o          1 S91      -0.667100
     18 N4          -1.0290     0.3750     0.2880 nu         1 S91      -0.701300
     19 N5           2.7410    -4.5830    -0.2490 nt         1 S91      -0.663000
     20 C14          5.2210     3.3620    -0.0150 ca         1 S91      -0.163000
     21 C15          3.8440     3.2670     0.0870 ca         1 S91      -0.106000
     22 C16          3.1980     2.0370     0.1340 ca         1 S91      -0.150000
     23 C17          3.9580     0.8690     0.0770 ca         1 S91       0.182600
     24 C18          5.3510     0.9740    -0.0250 ca         1 S91      -0.183000
     25 C19          5.9930     2.2010    -0.0700 ca         1 S91      -0.056300
     26 C20          7.4890     2.2800    -0.1640 c3         1 S91      -0.043800
     27 H2          -5.0240     2.2600     1.1790 ha         1 S91       0.130500
     28 H3          -2.5880     2.2710     1.0760 ha         1 S91       0.125500
     29 H5          -2.6300    -1.7670    -0.3630 ha         1 S91       0.125500
     30 H6          -5.0610    -1.7670    -0.2430 ha         1 S91       0.130500
     31 H71         -7.1080    -0.7950     0.5750 hc         1 S91       0.033200
     32 H72         -7.0810     0.7140     1.4490 hc         1 S91       0.033200
     33 H11          0.3640    -3.7410     0.2370 h4         1 S91       0.005100
     34 HN3          4.1540    -1.1780     0.1100 hn         1 S91       0.487800
     35 HN4         -0.6750     1.3180     0.3410 hn         1 S91       0.447800
     36 HN51         1.8180    -4.8810    -0.5090 hn         1 S91       0.312500
     37 HN52         3.4780    -5.2610    -0.3510 hn         1 S91       0.312500
     38 H15          3.2450     4.1680     0.1300 ha         1 S91       0.128000
     39 H16          2.1250     1.9940     0.2100 ha         1 S91       0.168000
     40 H18          5.9480     0.0690    -0.0760 ha         1 S91       0.132000
     41 H201         7.9250     2.5840     0.7900 hc         1 S91       0.038033
     42 H202         7.9280     1.3210    -0.4340 hc         1 S91       0.038033
     43 H203         7.8020     3.0150    -0.9060 hc         1 S91       0.038033
     44 C13          3.0690    -3.3080    -0.0010 c          1 S91       0.722700
     45 N3           3.4590    -0.4330     0.1090 nu         1 S91      -0.743300
     46 H14          5.6980     4.3340    -0.0550 ha         1 S91       0.124000
@<TRIPOS>BOND
     1     1     2 ar  
     2     1     6 ar  
     3     1     7 1   
     4     2     3 ar  
     5     2    27 1   
     6     3     4 ar  
     7     3    28 1   
     8     4     5 ar  
     9     4    18 1   
    10     5     6 ar  
    11     5    29 1   
    12     6    30 1   
    13     7     8 1   
    14     7    31 1   
    15     7    32 1   
    16     8     9 1   
    17     8    10 1   
    18    11    12 ar  
    19    11    16 ar  
    20    12    13 ar  
    21    12    45 1   
    22    13    14 ar  
    23    13    44 1   
    24    14    15 ar  
    25    14    33 1   
    26    15    16 ar  
    27    16    18 1   
    28    17    44 2   
    29    18    35 1   
    30    19    36 1   
    31    19    37 1   
    32    19    44 1   
    33    20    21 ar  
    34    20    25 ar  
    35    20    46 1   
    36    21    22 ar  
    37    21    38 1   
    38    22    23 ar  
    39    22    39 1   
    40    23    24 ar  
    41    23    45 1   
    42    24    25 ar  
    43    24    40 1   
    44    25    26 1   
    45    26    41 1   
    46    26    42 1   
    47    26    43 1   
    48    34    45 1   
@<TRIPOS>SUBSTRUCTURE
     1 S91         1 TEMP              0 ****  ****    0 ROOT
