@<TRIPOS>MOLECULE
S91
   46    48     1     0     0
SMALL
No Charge or Current Charge


@<TRIPOS>ATOM
      1 C1          -5.2940     0.2770     0.6140 ca         1 S91       0.004700
      2 C2          -4.5450     1.3050     1.2170 ca         1 S91      -0.093500
      3 C3          -3.1410     1.2990     1.1420 ca         1 S91      -0.134500
      4 C4          -2.4630     0.2650     0.4720 ca         1 S91       0.241000
      5 C5          -3.2140    -0.7540    -0.1460 ca         1 S91      -0.134500
      6 C6          -4.6190    -0.7500    -0.0720 ca         1 S91      -0.093500
      7 C7          -6.8180     0.2810     0.6960 c3         1 S91      -0.191100
      8 C8          -7.3950     1.0560    -0.4970 c          1 S91       0.725000
      9 O1          -7.5880     0.4470    -1.5390 o          1 S91      -0.724500
     10 O2          -7.5220     2.2670    -0.3890 o          1 S91      -0.724500
     11 N1           1.1620    -0.1060     0.1270 nb         1 S91      -0.350000
     12 C9           2.1750    -0.9700    -0.0140 ca         1 S91       0.472900
     13 C10          1.9770    -2.3610    -0.0020 ca         1 S91      -0.416600
     14 C11          0.6450    -2.7950     0.1410 ca         1 S91       0.201900
     15 N2          -0.3750    -1.9320     0.2700 nb         1 S91      -0.256000
     16 C12         -0.0600    -0.6290     0.2470 ca         1 S91       0.441900
     17 O3           4.2740    -3.0230    -0.1450 o          1 S91      -0.667100
     18 N4          -1.0650     0.3120     0.4150 nu         1 S91      -0.894900
     19 N5           2.7820    -4.6500    -0.1760 nt         1 S91      -0.596000
     20 C14          5.2620     3.3540    -0.4110 ca         1 S91      -0.145000
     21 C15          3.9210     3.2080    -0.8010 ca         1 S91      -0.088000
     22 C16          3.2970     1.9520    -0.7160 ca         1 S91      -0.132000
     23 C17          4.0060     0.8350    -0.2320 ca         1 S91       0.321000
     24 C18          5.3530     0.9890     0.1390 ca         1 S91      -0.165000
     25 C19          5.9870     2.2430     0.0560 ca         1 S91      -0.056300
     26 C20          7.4420     2.3960     0.4740 c3         1 S91      -0.043800
     27 H2          -5.0510     2.1100     1.7440 ha         1 S91       0.112500
     28 H3          -2.5800     2.1010     1.6140 ha         1 S91       0.107500
     29 H5          -2.7240    -1.5450    -0.7030 ha         1 S91       0.107500
     30 H6          -5.1840    -1.5430    -0.5560 ha         1 S91       0.112500
     31 H71         -7.1450    -0.7650     0.6600 hc         1 S91       0.033200
     32 H72         -7.0890     0.7780     1.6350 hc         1 S91       0.033200
     33 H11          0.3750    -3.8490     0.1670 h4         1 S91       0.005100
     34 HN3          4.1370    -1.2000    -0.1000 hn         1 S91       0.543000
     35 HN4         -0.6770     1.2330     0.6100 hn         1 S91       0.503000
     36 HN51         1.8170    -4.9410    -0.1540 hn         1 S91       0.312500
     37 HN52         3.5230    -5.3300    -0.2490 hn         1 S91       0.312500
     38 H15          3.3670     4.0670    -1.1740 ha         1 S91       0.110000
     39 H16          2.2690     1.8550    -1.0470 ha         1 S91       0.150000
     40 H18          5.9110     0.1310     0.5030 ha         1 S91       0.114000
     41 H201         7.5190     2.6090     1.5470 hc         1 S91       0.038033
     42 H202         8.0140     1.4830     0.2710 hc         1 S91       0.038033
     43 H203         7.9300     3.2160    -0.0660 hc         1 S91       0.038033
     44 C13          3.0980    -3.3460    -0.1170 c          1 S91       0.655700
     45 N3           3.4460    -0.4420    -0.1370 nu         1 S91      -0.936900
     46 H14          5.7390     4.3300    -0.4790 ha         1 S91       0.106000
@<TRIPOS>BOND
     1     1     2 ar  
     2     1     6 ar  
     3     1     7 1   
     4     2     3 ar  
     5     2    27 1   
     6     3     4 ar  
     7     3    28 1   
     8     4     5 ar  
     9     4    18 1   
    10     5     6 ar  
    11     5    29 1   
    12     6    30 1   
    13     7     8 1   
    14     7    31 1   
    15     7    32 1   
    16     8     9 1   
    17     8    10 1   
    18    11    12 ar  
    19    11    16 ar  
    20    12    13 ar  
    21    12    45 1   
    22    13    14 ar  
    23    13    44 1   
    24    14    15 ar  
    25    14    33 1   
    26    15    16 ar  
    27    16    18 1   
    28    17    44 2   
    29    18    35 1   
    30    19    36 1   
    31    19    37 1   
    32    19    44 1   
    33    20    21 ar  
    34    20    25 ar  
    35    20    46 1   
    36    21    22 ar  
    37    21    38 1   
    38    22    23 ar  
    39    22    39 1   
    40    23    24 ar  
    41    23    45 1   
    42    24    25 ar  
    43    24    40 1   
    44    25    26 1   
    45    26    41 1   
    46    26    42 1   
    47    26    43 1   
    48    34    45 1   
@<TRIPOS>SUBSTRUCTURE
     1 S91         1 TEMP              0 ****  ****    0 ROOT
