@<TRIPOS>MOLECULE
S92
   61    66     1     0     0
SMALL
bcc


@<TRIPOS>ATOM
      1 C1         -16.6810    65.0150    -3.5010 cc         1 S92       0.056600
      2 C2         -16.3490    66.3110    -3.2650 cd         1 S92      -0.138200
      3 C3         -16.0240    67.1150    -4.3910 cd         1 S92      -0.015000
      4 N6         -21.0430    68.8160    -2.6680 na         1 S92       0.010200
      5 C8         -14.2000    64.6680    -0.8150 c3         1 S92       0.158800
      6 C9         -13.8870    64.7040     1.5750 c6         1 S92       0.173800
      7 C10        -14.5930    64.5770     2.9170 c6         1 S92      -0.075400
      8 C11        -15.2110    63.1940     3.0760 c6         1 S92      -0.075400
      9 C12        -16.0930    62.8760     1.8750 c6         1 S92      -0.075400
     10 C13        -15.3250    63.0640     0.5760 c6         1 S92       0.173800
     11 C14        -18.6770    68.0360    -1.7430 cc         1 S92       0.504300
     12 C15        -19.5170    68.7840    -0.9110 cc         1 S92      -0.387300
     13 C16        -20.7490    69.2030    -1.3940 cd         1 S92       0.321300
     14 C19        -20.4510    71.4380     0.8740 cx         1 S92      -0.127400
     15 C20        -22.0600    68.5640    -4.4920 cc         1 S92       0.457500
     16 C21        -20.8300    67.8960    -4.6420 cc         1 S92      -0.249300
     17 C22        -20.3230    67.1970    -5.7490 cg         1 S92       0.253500
     18 N8         -19.8920    66.6200    -6.6510 n1         1 S92      -0.387800
     19 N7         -22.1880    69.1160    -3.3090 nd         1 S92      -0.619100
     20 C23        -20.1690    68.0750    -3.4200 cd         1 S92       0.480500
     21 N5         -21.6520    69.9380    -0.7520 nu         1 S92      -0.734600
     22 C17        -21.4740    70.3790     0.5930 cx         1 S92       0.152500
     23 C18        -21.9090    71.7670     0.9230 cx         1 S92      -0.127400
     24 N9         -18.9880    67.6800    -2.9830 nd         1 S92      -0.706000
     25 C6         -17.3690    67.6150    -1.2620 cc         1 S92       0.190300
     26 N1         -16.8960    67.9320    -0.0380 nc         1 S92      -0.350000
     27 N2         -15.7160    67.4500     0.0960 nd         1 S92      -0.180800
     28 N3         -15.3970    66.8190    -1.0240 na         1 S92       0.121400
     29 C5         -16.4010    66.8790    -1.9180 cd         1 S92      -0.080400
     30 N          -16.6910    64.5190    -4.7550 ns         1 S92      -0.430100
     31 C4         -16.0380    66.6080    -5.6480 cc         1 S92      -0.259200
     32 C          -16.3900    65.2340    -5.9040 c          1 S92       0.699700
     33 O          -16.4370    64.6970    -7.0040 o          1 S92      -0.615500
     34 N4         -14.7910    64.4120     0.4760 n3         1 S92      -0.723600
     35 H1         -16.9690    64.3270    -2.7180 h4         1 S92       0.152000
     36 H3         -15.7690    68.1560    -4.2340 ha         1 S92       0.140000
     37 H4         -13.7610    66.2790    -2.1710 h1         1 S92       0.074700
     38 H5         -13.4230    66.6810    -0.4970 h1         1 S92       0.074700
     39 H6         -14.8080    64.1760    -1.5770 h1         1 S92       0.040200
     40 H7         -13.1840    64.2530    -0.9180 h1         1 S92       0.040200
     41 H9         -13.5000    65.7200     1.4680 h1         1 S92       0.027700
     42 H10        -13.8800    64.7780     3.7190 hc         1 S92       0.050700
     43 H11        -15.3730    65.3420     2.9830 hc         1 S92       0.050700
     44 H12        -15.7840    63.1320     4.0040 hc         1 S92       0.039200
     45 H13        -14.4140    62.4470     3.1500 hc         1 S92       0.039200
     46 H14        -16.9630    63.5380     1.8720 hc         1 S92       0.050700
     47 H15        -16.4690    61.8520     1.9280 hc         1 S92       0.050700
     48 H16        -15.9900    62.8900    -0.2740 h1         1 S92       0.027700
     49 H17        -14.5250    62.3050     0.5120 h1         1 S92       0.027700
     50 H18        -19.2140    69.0390     0.0920 ha         1 S92       0.182000
     51 H19        -19.8990    71.3640     1.8020 hc         1 S92       0.085200
     52 H20        -19.8780    71.8120     0.0350 hc         1 S92       0.085200
     53 H21        -22.8490    68.6520    -5.2230 h4         1 S92       0.054800
     54 H23        -22.5350    70.1080    -1.2120 hn         1 S92       0.477800
     55 H24        -21.6230    69.6130     1.3490 h1         1 S92       0.094700
     56 H25        -22.3160    72.3680     0.1190 hc         1 S92       0.085200
     57 H26        -22.3770    71.9250     1.8850 hc         1 S92       0.085200
     58 H27        -15.7910    67.2270    -6.4990 ha         1 S92       0.163000
     59 H2         -16.9490    63.5490    -4.8800 hn         1 S92       0.327500
     60 C7         -14.1160    66.1530    -1.1490 c3         1 S92       0.047300
     61 H8         -13.0120    64.0290     1.5560 h1         1 S92       0.027700
@<TRIPOS>BOND
     1     1     2 2   
     2     1    30 1   
     3     1    35 1   
     4     2     3 1   
     5     2    29 1   
     6     3    31 2   
     7     3    36 1   
     8     4    13 1   
     9     4    19 1   
    10     4    20 1   
    11     5    34 1   
    12     5    39 1   
    13     5    40 1   
    14     5    60 1   
    15     6     7 1   
    16     6    34 1   
    17     6    41 1   
    18     6    61 1   
    19     7     8 1   
    20     7    42 1   
    21     7    43 1   
    22     8     9 1   
    23     8    44 1   
    24     8    45 1   
    25     9    10 1   
    26     9    46 1   
    27     9    47 1   
    28    10    34 1   
    29    10    48 1   
    30    10    49 1   
    31    11    12 1   
    32    11    24 2   
    33    11    25 1   
    34    12    13 2   
    35    12    50 1   
    36    13    21 1   
    37    14    22 1   
    38    14    23 1   
    39    14    51 1   
    40    14    52 1   
    41    15    16 1   
    42    15    19 2   
    43    15    53 1   
    44    16    17 1   
    45    16    20 2   
    46    17    18 3   
    47    20    24 1   
    48    21    22 1   
    49    21    54 1   
    50    22    23 1   
    51    22    55 1   
    52    23    56 1   
    53    23    57 1   
    54    25    26 1   
    55    25    29 2   
    56    26    27 2   
    57    27    28 1   
    58    28    29 1   
    59    28    60 1   
    60    30    32 1   
    61    30    59 1   
    62    31    32 1   
    63    31    58 1   
    64    32    33 2   
    65    37    60 1   
    66    38    60 1   
@<TRIPOS>SUBSTRUCTURE
     1 S92         1 TEMP              0 ****  ****    0 ROOT
