@<TRIPOS>MOLECULE
S92
   61    66     1     0     0
SMALL
No Charge or Current Charge


@<TRIPOS>ATOM
      1 C1         -15.7110    65.3270    -3.9270 cc         1 S92       0.006600
      2 C2         -16.3570    66.4880    -3.5260 cd         1 S92      -0.138200
      3 C3         -16.7490    67.4340    -4.5520 cd         1 S92      -0.065000
      4 N6         -21.2830    68.9460    -2.7640 na         1 S92       0.060900
      5 C8         -14.4640    64.2100    -0.6220 c3         1 S92       0.158800
      6 C9         -14.0610    64.5640     1.8160 c6         1 S92       0.173800
      7 C10        -14.6590    64.3830     3.2330 c6         1 S92      -0.075400
      8 C11        -14.9340    62.8930     3.5360 c6         1 S92      -0.075400
      9 C12        -15.8080    62.2790     2.4190 c6         1 S92      -0.075400
     10 C13        -15.1760    62.5170     1.0260 c6         1 S92       0.173800
     11 C14        -18.8160    67.9840    -2.0340 cc         1 S92       0.439000
     12 C15        -19.5700    68.9090    -1.1950 cc         1 S92      -0.304000
     13 C16        -20.8090    69.4080    -1.5410 cd         1 S92       0.409000
     14 C19        -20.2580    71.9960     0.5320 cx         1 S92      -0.127400
     15 C20        -22.4150    68.5650    -4.4600 cc         1 S92       0.457500
     16 C21        -21.2290    67.7990    -4.5880 cc         1 S92      -0.249300
     17 C22        -20.9240    66.9590    -5.6810 cg         1 S92       0.342700
     18 N8         -20.7020    66.2730    -6.5990 n1         1 S92      -0.477000
     19 N7         -22.5030    69.2950    -3.3450 nd         1 S92      -0.619100
     20 C23        -20.5130    68.0640    -3.4730 cd         1 S92       0.480500
     21 N5         -21.5470    70.2890    -0.7880 nu         1 S92      -0.928200
     22 C17        -21.2150    70.8320     0.5000 cx         1 S92       0.152500
     23 C18        -21.7230    72.2150     0.8190 cx         1 S92      -0.127400
     24 N9         -19.2820    67.5160    -3.1990 nd         1 S92      -0.706000
     25 C6         -17.5300    67.5250    -1.4840 cc         1 S92       0.125000
     26 N1         -17.1900    67.7050    -0.1660 nc         1 S92      -0.350000
     27 N2         -16.0970    67.0410     0.0910 nd         1 S92      -0.180800
     28 N3         -15.7140    66.3870    -1.0540 na         1 S92       0.142800
     29 C5         -16.5640    66.7450    -2.1010 cd         1 S92      -0.065800
     30 N          -15.4870    65.0700    -5.2730 ns         1 S92      -0.363100
     31 C4         -16.4980    67.1260    -5.8760 cc         1 S92      -0.309200
     32 C          -15.8430    65.8900    -6.3080 c          1 S92       0.557200
     33 O          -15.6200    65.6040    -7.4720 o          1 S92      -0.540000
     34 N4         -14.9400    63.9660     0.7670 n3         1 S92      -0.723600
     35 H1         -15.3850    64.5120    -3.2940 h4         1 S92       0.202000
     36 H3         -17.1930    68.3930    -4.2990 ha         1 S92       0.190000
     37 H4         -13.9810    65.7550    -2.0820 h1         1 S92       0.074700
     38 H5         -13.7170    66.2420    -0.4270 h1         1 S92       0.074700
     39 H6         -15.1210    63.6720    -1.3170 h1         1 S92       0.040200
     40 H7         -13.4610    63.7810    -0.7450 h1         1 S92       0.040200
     41 H9         -13.9240    65.6410     1.6440 h1         1 S92       0.027700
     42 H10        -13.9720    64.7990     3.9820 hc         1 S92       0.050700
     43 H11        -15.5930    64.9570     3.3100 hc         1 S92       0.050700
     44 H12        -15.4340    62.7900     4.5090 hc         1 S92       0.039200
     45 H13        -13.9830    62.3470     3.6070 hc         1 S92       0.039200
     46 H14        -16.8120    62.7240     2.4450 hc         1 S92       0.050700
     47 H15        -15.9360    61.2020     2.5910 hc         1 S92       0.050700
     48 H16        -15.8480    62.0990     0.2630 h1         1 S92       0.027700
     49 H17        -14.2280    61.9620     0.9620 h1         1 S92       0.027700
     50 H18        -19.1380    69.2340    -0.2600 ha         1 S92       0.164000
     51 H19        -19.5620    72.0520     1.3660 hc         1 S92       0.085200
     52 H20        -19.8650    72.3600    -0.4140 hc         1 S92       0.085200
     53 H21        -23.2330    68.6090    -5.1660 h4         1 S92       0.054800
     54 H23        -22.4400    70.5140    -1.2380 hn         1 S92       0.533000
     55 H24        -21.1610    70.1060     1.3170 h1         1 S92       0.094700
     56 H25        -22.3130    72.7330     0.0680 hc         1 S92       0.085200
     57 H26        -22.0140    72.4180     1.8460 hc         1 S92       0.085200
     58 H27        -16.7690    67.8040    -6.6770 ha         1 S92       0.213000
     59 H2         -15.0330    64.2080    -5.5500 hn         1 S92       0.327500
     60 C7         -14.4080    65.6930    -1.0760 c3         1 S92       0.076600
     61 H8         -13.0640    64.1010     1.7850 h1         1 S92       0.027700
@<TRIPOS>BOND
     1     1     2 2   
     2     1    30 1   
     3     1    35 1   
     4     2     3 1   
     5     2    29 1   
     6     3    31 2   
     7     3    36 1   
     8     4    13 1   
     9     4    19 1   
    10     4    20 1   
    11     5    34 1   
    12     5    39 1   
    13     5    40 1   
    14     5    60 1   
    15     6     7 1   
    16     6    34 1   
    17     6    41 1   
    18     6    61 1   
    19     7     8 1   
    20     7    42 1   
    21     7    43 1   
    22     8     9 1   
    23     8    44 1   
    24     8    45 1   
    25     9    10 1   
    26     9    46 1   
    27     9    47 1   
    28    10    34 1   
    29    10    48 1   
    30    10    49 1   
    31    11    12 1   
    32    11    24 2   
    33    11    25 1   
    34    12    13 2   
    35    12    50 1   
    36    13    21 1   
    37    14    22 1   
    38    14    23 1   
    39    14    51 1   
    40    14    52 1   
    41    15    16 1   
    42    15    19 2   
    43    15    53 1   
    44    16    17 1   
    45    16    20 2   
    46    17    18 3   
    47    20    24 1   
    48    21    22 1   
    49    21    54 1   
    50    22    23 1   
    51    22    55 1   
    52    23    56 1   
    53    23    57 1   
    54    25    26 1   
    55    25    29 2   
    56    26    27 2   
    57    27    28 1   
    58    28    29 1   
    59    28    60 1   
    60    30    32 1   
    61    30    59 1   
    62    31    32 1   
    63    31    58 1   
    64    32    33 2   
    65    37    60 1   
    66    38    60 1   
@<TRIPOS>SUBSTRUCTURE
     1 S92         1 TEMP              0 ****  ****    0 ROOT
