@<TRIPOS>MOLECULE
S93
   48    50     1     0     0
SMALL
No Charge or Current Charge


@<TRIPOS>ATOM
      1 C13        -10.8460     1.7350   -11.5250 c          1 S93       0.665100
      2 C17         -9.8840     3.1620    -8.8830 c3         1 S93      -0.104767
      3 C16         -8.4210     3.6500   -10.9100 c3         1 S93      -0.104767
      4 C15         -7.7990     1.8120    -9.3030 c3         1 S93      -0.104767
      5 C11        -12.4980     0.6990   -13.1280 c6         1 S93       0.084000
      6 C12        -10.5840    -0.7110   -12.1640 c6         1 S93       0.158300
      7 O1         -11.3870     2.8220   -11.6500 o          1 S93      -0.638100
      8 N4          -9.7190     1.5400   -10.7540 ns         1 S93      -0.515900
      9 C14         -8.9800     2.5450    -9.9790 c3         1 S93       0.147400
     10 N3         -11.3460     0.5840   -12.1670 n          1 S93      -0.442800
     11 C9         -11.2570    -1.8190   -12.9390 cc         1 S93      -0.086300
     12 C7         -10.7920    -3.0530   -13.3260 cd         1 S93      -0.271600
     13 C8          -9.4280    -3.5610   -13.0360 c          1 S93       0.654700
     14 N           -9.0910    -4.7350   -13.5970 nt         1 S93      -0.598000
     15 O           -8.6120    -2.9740   -12.3470 o          1 S93      -0.630100
     16 C10        -13.3780    -0.5700   -13.2550 c6         1 S93       0.067600
     17 N2         -12.5330    -1.7470   -13.4510 na         1 S93       0.151800
     18 N1         -12.9180    -2.8720   -14.1410 nc         1 S93      -0.507800
     19 C6         -11.8610    -3.6570   -14.0390 cd         1 S93       0.330500
     20 C5         -11.9060    -4.9990   -14.6370 ca         1 S93      -0.138500
     21 C          -12.1270    -5.1510   -16.0210 ca         1 S93      -0.057000
     22 C4         -11.7950    -6.1460   -13.8220 ca         1 S93      -0.061000
     23 C3         -11.8690    -7.4300   -14.3900 ca         1 S93       0.059000
     24 Cl         -11.7160    -8.8460   -13.3500 cl         1 S93      -0.164000
     25 C2         -12.0680    -7.5720   -15.7760 ca         1 S93       0.187000
     26 F          -12.1420    -8.8010   -16.3360 f          1 S93      -0.158000
     27 C1         -12.2000    -6.4350   -16.5900 ca         1 S93      -0.152000
     28 H18         -9.3060     3.8350    -8.2380 hc         1 S93       0.045478
     29 H19        -10.7050     3.7460    -9.3150 hc         1 S93       0.045478
     30 H20        -10.3200     2.3790    -8.2500 hc         1 S93       0.045478
     31 H17         -7.7820     4.3430   -10.3490 hc         1 S93       0.045478
     32 H16         -7.8190     3.2130   -11.7160 hc         1 S93       0.045478
     33 H15         -9.2230     4.2400   -11.3670 hc         1 S93       0.045478
     34 H13         -7.1980     2.5060    -8.7030 hc         1 S93       0.045478
     35 H12         -8.1590     1.0160    -8.6390 hc         1 S93       0.045478
     36 H14         -7.1390     1.3560   -10.0520 hc         1 S93       0.045478
     37 H7         -12.0910     0.9440   -14.1190 h1         1 S93       0.072700
     38 H8         -13.1500     1.5350   -12.8380 h1         1 S93       0.072700
     39 H10        -10.4440    -1.0410   -11.1250 h1         1 S93       0.077200
     40 H9          -9.5860    -0.5270   -12.5860 h1         1 S93       0.077200
     41 H11         -9.3690     0.5940   -10.7230 hn         1 S93       0.311500
     42 H3          -8.1690    -5.1090   -13.4340 hn         1 S93       0.316500
     43 H4          -9.7430    -5.2130   -14.1980 hn         1 S93       0.316500
     44 H6         -14.0750    -0.4670   -14.0980 h1         1 S93       0.081700
     45 H5         -13.9630    -0.7100   -12.3370 h1         1 S93       0.081700
     46 H          -12.2370    -4.2730   -16.6550 ha         1 S93       0.133000
     47 H2         -11.6570    -6.0420   -12.7480 ha         1 S93       0.144000
     48 H1         -12.3620    -6.5510   -17.6590 ha         1 S93       0.139000
@<TRIPOS>BOND
     1     1     7 2   
     2     1     8 1   
     3     1    10 1   
     4     2     9 1   
     5     2    28 1   
     6     2    29 1   
     7     2    30 1   
     8     3     9 1   
     9     3    31 1   
    10     3    32 1   
    11     3    33 1   
    12     4     9 1   
    13     4    34 1   
    14     4    35 1   
    15     4    36 1   
    16     5    10 1   
    17     5    16 1   
    18     5    37 1   
    19     5    38 1   
    20     6    10 1   
    21     6    11 1   
    22     6    39 1   
    23     6    40 1   
    24     8     9 1   
    25     8    41 1   
    26    11    12 2   
    27    11    17 1   
    28    12    13 1   
    29    12    19 1   
    30    13    14 1   
    31    13    15 2   
    32    14    42 1   
    33    14    43 1   
    34    16    17 1   
    35    16    44 1   
    36    16    45 1   
    37    17    18 1   
    38    18    19 2   
    39    19    20 1   
    40    20    21 ar  
    41    20    22 ar  
    42    21    27 ar  
    43    21    46 1   
    44    22    23 ar  
    45    22    47 1   
    46    23    24 1   
    47    23    25 ar  
    48    25    26 1   
    49    25    27 ar  
    50    27    48 1   
@<TRIPOS>SUBSTRUCTURE
     1 S93         1 TEMP              0 ****  ****    0 ROOT
