@<TRIPOS>MOLECULE
S93
   48    50     1     0     0
SMALL
abcg2


@<TRIPOS>ATOM
      1 C13        -10.8250     1.6040   -11.5350 c          1 S93       0.665100
      2 C17        -10.1400     2.8740    -8.7910 c3         1 S93      -0.104767
      3 C16         -8.7040     3.7220   -10.6750 c3         1 S93      -0.104767
      4 C15         -7.9270     1.8430    -9.2350 c3         1 S93      -0.104767
      5 C11        -12.1100     0.7280   -13.4120 c6         1 S93       0.084000
      6 C12        -10.3050    -0.6400   -12.4510 c6         1 S93       0.158300
      7 O1         -11.5400     2.5980   -11.4950 o          1 S93      -0.638100
      8 N4          -9.7080     1.4600   -10.7810 ns         1 S93      -0.515900
      9 C14         -9.1500     2.4870    -9.8890 c3         1 S93       0.147400
     10 N3         -11.1460     0.5350   -12.3490 n          1 S93      -0.442800
     11 C9         -11.0290    -1.7740   -13.0990 cc         1 S93      -0.086300
     12 C7         -10.6360    -3.0720   -13.3930 cd         1 S93      -0.271600
     13 C8          -9.2800    -3.5850   -13.1260 c          1 S93       0.654700
     14 N           -8.8660    -4.6270   -13.8670 nt         1 S93      -0.598000
     15 O           -8.5720    -3.0630   -12.2730 o          1 S93      -0.630100
     16 C10        -13.0690    -0.4420   -13.4610 c6         1 S93       0.067600
     17 N2         -12.2820    -1.6530   -13.5440 na         1 S93       0.151800
     18 N1         -12.7580    -2.7700   -14.0840 nc         1 S93      -0.507800
     19 C6         -11.7760    -3.6480   -14.0050 cd         1 S93       0.330500
     20 C5         -11.9910    -5.0120   -14.5100 ca         1 S93      -0.138500
     21 C          -12.5590    -5.2130   -15.7660 ca         1 S93      -0.057000
     22 C4         -11.6590    -6.1180   -13.7290 ca         1 S93      -0.061000
     23 C3         -11.8770    -7.3980   -14.2090 ca         1 S93       0.059000
     24 CL         -11.4820    -8.7760   -13.2570 cl         1 S93      -0.164000
     25 C2         -12.4280    -7.5760   -15.4680 ca         1 S93       0.187000
     26 F          -12.6200    -8.8150   -15.9220 f          1 S93      -0.158000
     27 C1         -12.7770    -6.4940   -16.2490 ca         1 S93      -0.152000
     28 H18         -9.6490     3.5390    -8.0790 hc         1 S93       0.045478
     29 H19        -11.0110     3.3910    -9.1850 hc         1 S93       0.045478
     30 H20        -10.4770     1.9910    -8.2460 hc         1 S93       0.045478
     31 H17         -8.2340     4.4440   -10.0060 hc         1 S93       0.045478
     32 H16         -7.9740     3.4520   -11.4400 hc         1 S93       0.045478
     33 H15         -9.5450     4.2140   -11.1610 hc         1 S93       0.045478
     34 H13         -7.4510     2.5470    -8.5530 hc         1 S93       0.045478
     35 H12         -8.2070     0.9560    -8.6640 hc         1 S93       0.045478
     36 H14         -7.1840     1.5510    -9.9820 hc         1 S93       0.045478
     37 H7         -11.6040     0.8300   -14.3800 h1         1 S93       0.072700
     38 H8         -12.6680     1.6420   -13.2340 h1         1 S93       0.072700
     39 H10        -10.0090    -0.9750   -11.4560 h1         1 S93       0.077200
     40 H9          -9.3820    -0.4440   -13.0130 h1         1 S93       0.077200
     41 H11         -9.0600     0.7270   -11.0160 hn         1 S93       0.311500
     42 H3          -7.9290    -4.9770   -13.7450 hn         1 S93       0.316500
     43 H4          -9.3760    -4.9610   -14.6660 hn         1 S93       0.316500
     44 H6         -13.7050    -0.3830   -14.3430 h1         1 S93       0.081700
     45 H5         -13.7010    -0.4700   -12.5720 h1         1 S93       0.081700
     46 H          -12.8220    -4.3640   -16.3810 ha         1 S93       0.133000
     47 H2         -11.2400    -5.9870   -12.7410 ha         1 S93       0.144000
     48 H1         -13.2090    -6.6530   -17.2280 ha         1 S93       0.139000
@<TRIPOS>BOND
     1     1     7 2   
     2     1     8 1   
     3     1    10 1   
     4     2     9 1   
     5     2    28 1   
     6     2    29 1   
     7     2    30 1   
     8     3     9 1   
     9     3    31 1   
    10     3    32 1   
    11     3    33 1   
    12     4     9 1   
    13     4    34 1   
    14     4    35 1   
    15     4    36 1   
    16     5    10 1   
    17     5    16 1   
    18     5    37 1   
    19     5    38 1   
    20     6    10 1   
    21     6    11 1   
    22     6    39 1   
    23     6    40 1   
    24     8     9 1   
    25     8    41 1   
    26    11    12 2   
    27    11    17 1   
    28    12    13 1   
    29    12    19 1   
    30    13    14 1   
    31    13    15 2   
    32    14    42 1   
    33    14    43 1   
    34    16    17 1   
    35    16    44 1   
    36    16    45 1   
    37    17    18 1   
    38    18    19 2   
    39    19    20 1   
    40    20    21 ar  
    41    20    22 ar  
    42    21    27 ar  
    43    21    46 1   
    44    22    23 ar  
    45    22    47 1   
    46    23    24 1   
    47    23    25 ar  
    48    25    26 1   
    49    25    27 ar  
    50    27    48 1   
@<TRIPOS>SUBSTRUCTURE
     1 S93         1 TEMP              0 ****  ****    0 ROOT
