@<TRIPOS>MOLECULE
S94
   49    52     1     0     0
SMALL
abcg2


@<TRIPOS>ATOM
      1 C18          6.5240     1.8230     1.7120 ca         1 S94      -0.110000
      2 C23         -6.9930     1.6470     0.9190 ca         1 S94      -0.149000
      3 C16          6.7660     0.6330     1.0360 ca         1 S94      -0.109000
      4 C17          5.3150     2.4780     1.5190 ca         1 S94      -0.109000
      5 C22         -6.4700     0.3890     1.1750 ca         1 S94      -0.073500
      6 C24         -6.2820     2.5170     0.0990 ca         1 S94      -0.073500
      7 C15          5.8130     0.1060     0.1770 ca         1 S94      -0.102000
      8 C14          4.3610     1.9470     0.6620 ca         1 S94      -0.102000
      9 C21         -5.2550    -0.0110     0.6290 ca         1 S94      -0.174000
     10 C25         -5.0710     2.1340    -0.4520 ca         1 S94      -0.174000
     11 C10          4.5930     0.7540    -0.0230 ca         1 S94      -0.041300
     12 C20         -4.5470     0.8650    -0.1930 ca         1 S94       0.149100
     13 C6           1.0370    -1.6140     0.0010 c          1 S94       0.641100
     14 C4          -1.7120    -0.8350    -1.6940 c6         1 S94      -0.124400
     15 C12         -2.0080    -0.6920     0.7880 c6         1 S94      -0.124400
     16 C3           3.8680    -0.6100    -2.1320 cx         1 S94      -0.133400
     17 C9          -0.9010    -2.1090    -1.4800 c6         1 S94       0.095500
     18 C13         -1.1810    -1.9710     0.9060 c6         1 S94       0.095500
     19 C2           3.5430     0.2210    -0.9220 cx         1 S94      -0.062400
     20 C1           3.2220    -1.2490    -0.9530 cx         1 S94       0.059700
     21 C7          -2.7130    -0.6540    -0.5640 c6         1 S94       0.181300
     22 N8          -0.2340    -2.0920    -0.1880 n          1 S94      -0.407800
     23 N5           1.8630    -1.6420    -1.0860 ns         1 S94      -0.490900
     24 O11          1.4290    -1.1970     1.0830 o          1 S94      -0.619100
     25 O19         -3.3700     0.5870    -0.7900 os         1 S94      -0.353100
     26 H1           7.2690     2.2350     2.3790 ha         1 S94       0.111000
     27 H3           7.7050     0.1130     1.1750 ha         1 S94       0.110000
     28 H4           5.1120     3.4080     2.0360 ha         1 S94       0.110000
     29 H5          -7.0060    -0.3010     1.8130 ha         1 S94       0.111000
     30 H6          -6.6700     3.5040    -0.1140 ha         1 S94       0.111000
     31 H7           6.0340    -0.8210    -0.3390 ha         1 S94       0.109000
     32 H8           3.4200     2.4660     0.5220 ha         1 S94       0.109000
     33 H9          -4.8840    -1.0000     0.8570 ha         1 S94       0.119500
     34 H10         -4.5220     2.8130    -1.0930 ha         1 S94       0.119500
     35 H11         -1.0350     0.0240    -1.7360 hc         1 S94       0.066200
     36 H12         -2.2330    -0.8920    -2.6530 hc         1 S94       0.066200
     37 H13         -2.7240    -0.6480     1.6120 hc         1 S94       0.066200
     38 H14         -1.3500     0.1780     0.8790 hc         1 S94       0.066200
     39 H15          3.2660    -0.4510    -3.0180 hc         1 S94       0.077200
     40 H16          4.9050    -0.8490    -2.3330 hc         1 S94       0.077200
     41 H17         -1.5590    -2.9820    -1.5110 h1         1 S94       0.058200
     42 H18         -0.1980    -2.2380    -2.2990 h1         1 S94       0.058200
     43 H19         -0.6560    -2.0000     1.8570 h1         1 S94       0.058200
     44 H20         -1.8400    -2.8440     0.8780 h1         1 S94       0.058200
     45 H21          2.6820     0.8710    -1.0260 hc         1 S94       0.091700
     46 H22          3.8520    -1.8860    -0.3360 h1         1 S94       0.086700
     47 H23         -3.4390    -1.4760    -0.6220 h1         1 S94       0.041700
     48 H24          1.6530    -2.2540    -1.8570 hn         1 S94       0.311500
     49 H2          -7.9380     1.9470     1.3510 ha         1 S94       0.115000
@<TRIPOS>BOND
     1     1     3 ar  
     2     1     4 ar  
     3     1    26 1   
     4     2     5 ar  
     5     2     6 ar  
     6     2    49 1   
     7     3     7 ar  
     8     3    27 1   
     9     4     8 ar  
    10     4    28 1   
    11     5     9 ar  
    12     5    29 1   
    13     6    10 ar  
    14     6    30 1   
    15     7    11 ar  
    16     7    31 1   
    17     8    11 ar  
    18     8    32 1   
    19     9    12 ar  
    20     9    33 1   
    21    10    12 ar  
    22    10    34 1   
    23    11    19 1   
    24    12    25 1   
    25    13    22 1   
    26    13    23 1   
    27    13    24 2   
    28    14    17 1   
    29    14    21 1   
    30    14    35 1   
    31    14    36 1   
    32    15    18 1   
    33    15    21 1   
    34    15    37 1   
    35    15    38 1   
    36    16    19 1   
    37    16    20 1   
    38    16    39 1   
    39    16    40 1   
    40    17    22 1   
    41    17    41 1   
    42    17    42 1   
    43    18    22 1   
    44    18    43 1   
    45    18    44 1   
    46    19    20 1   
    47    19    45 1   
    48    20    23 1   
    49    20    46 1   
    50    21    25 1   
    51    21    47 1   
    52    23    48 1   
@<TRIPOS>SUBSTRUCTURE
     1 S94         1 TEMP              0 ****  ****    0 ROOT
