@<TRIPOS>MOLECULE
S94
   49    52     1     0     0
SMALL
No Charge or Current Charge


@<TRIPOS>ATOM
      1 C18          7.8700     0.6390     1.5720 ca         1 S94      -0.110000
      2 C23         -8.0490    -0.1190     0.9540 ca         1 S94      -0.149000
      3 C16          7.4140    -0.6570     1.2810 ca         1 S94      -0.109000
      4 C17          7.1770     1.7520     1.0720 ca         1 S94      -0.109000
      5 C22         -6.9460    -0.9340     1.2590 ca         1 S94      -0.073500
      6 C24         -7.9300     0.8920    -0.0130 ca         1 S94      -0.073500
      7 C15          6.2660    -0.8400     0.4910 ca         1 S94      -0.102000
      8 C14          6.0290     1.5700     0.2810 ca         1 S94      -0.102000
      9 C21         -5.7200    -0.7370     0.6000 ca         1 S94      -0.174000
     10 C25         -6.7040     1.0890    -0.6720 ca         1 S94      -0.174000
     11 C10          5.5610     0.2730    -0.0180 ca         1 S94      -0.041300
     12 C20         -5.5920     0.2860    -0.3690 ca         1 S94       0.149100
     13 C6           1.0980    -0.4590     0.2410 c          1 S94       0.641100
     14 C4          -2.1370     0.1810    -1.8070 c6         1 S94      -0.124400
     15 C12         -2.6100     0.5340     0.6040 c6         1 S94      -0.124400
     16 C3           4.2010    -0.9950    -1.8990 cx         1 S94      -0.133400
     17 C9          -0.7690    -0.4610    -1.4810 c6         1 S94       0.095500
     18 C13         -1.2620    -0.1090     0.9950 c6         1 S94       0.095500
     19 C2           4.3250     0.1060    -0.8690 cx         1 S94      -0.062400
     20 C1           3.3490    -1.0300    -0.6560 cx         1 S94       0.059700
     21 C7          -3.1650    -0.0740    -0.6970 c6         1 S94       0.181300
     22 N8          -0.2480    -0.1980    -0.1000 n          1 S94      -0.407800
     23 N5           1.9460    -0.7470    -0.8030 ns         1 S94      -0.490900
     24 O11          1.4930    -0.4290     1.3970 o          1 S94      -0.619100
     25 O19         -4.4220     0.5330    -1.0640 os         1 S94      -0.353100
     26 H1           8.7590     0.7800     2.1840 ha         1 S94       0.111000
     27 H3           7.9510    -1.5210     1.6680 ha         1 S94       0.110000
     28 H4           7.5280     2.7570     1.2960 ha         1 S94       0.110000
     29 H5          -7.0420    -1.7200     2.0060 ha         1 S94       0.111000
     30 H6          -8.7850     1.5220    -0.2520 ha         1 S94       0.111000
     31 H7           5.9320    -1.8520     0.2770 ha         1 S94       0.109000
     32 H8           5.5020     2.4420    -0.1000 ha         1 S94       0.109000
     33 H9          -4.8890    -1.3880     0.8520 ha         1 S94       0.119500
     34 H10         -6.6130     1.8710    -1.4210 ha         1 S94       0.119500
     35 H11         -2.0060     1.2620    -1.9470 hc         1 S94       0.066200
     36 H12         -2.5090    -0.2150    -2.7610 hc         1 S94       0.066200
     37 H13         -3.3220     0.4110     1.4300 hc         1 S94       0.066200
     38 H14         -2.4710     1.6160     0.4750 hc         1 S94       0.066200
     39 H15          3.7230    -0.7480    -2.8440 hc         1 S94       0.077200
     40 H16          5.0080    -1.7190    -1.9790 hc         1 S94       0.077200
     41 H17         -0.8510    -1.5500    -1.6120 h1         1 S94       0.058200
     42 H18         -0.0510    -0.0970    -2.2290 h1         1 S94       0.058200
     43 H19         -0.8440     0.4580     1.8390 h1         1 S94       0.058200
     44 H20         -1.4540    -1.1280     1.3630 h1         1 S94       0.058200
     45 H21          3.8850     1.0620    -1.1440 hc         1 S94       0.091700
     46 H22          3.5780    -1.7780     0.1050 h1         1 S94       0.086700
     47 H23         -3.3000    -1.1600    -0.5920 h1         1 S94       0.041700
     48 H24          1.5370    -0.7550    -1.7260 hn         1 S94       0.311500
     49 H2          -8.9970    -0.2730     1.4650 ha         1 S94       0.115000
@<TRIPOS>BOND
     1     1     3 ar  
     2     1     4 ar  
     3     1    26 1   
     4     2     5 ar  
     5     2     6 ar  
     6     2    49 1   
     7     3     7 ar  
     8     3    27 1   
     9     4     8 ar  
    10     4    28 1   
    11     5     9 ar  
    12     5    29 1   
    13     6    10 ar  
    14     6    30 1   
    15     7    11 ar  
    16     7    31 1   
    17     8    11 ar  
    18     8    32 1   
    19     9    12 ar  
    20     9    33 1   
    21    10    12 ar  
    22    10    34 1   
    23    11    19 1   
    24    12    25 1   
    25    13    22 1   
    26    13    23 1   
    27    13    24 2   
    28    14    17 1   
    29    14    21 1   
    30    14    35 1   
    31    14    36 1   
    32    15    18 1   
    33    15    21 1   
    34    15    37 1   
    35    15    38 1   
    36    16    19 1   
    37    16    20 1   
    38    16    39 1   
    39    16    40 1   
    40    17    22 1   
    41    17    41 1   
    42    17    42 1   
    43    18    22 1   
    44    18    43 1   
    45    18    44 1   
    46    19    20 1   
    47    19    45 1   
    48    20    23 1   
    49    20    46 1   
    50    21    25 1   
    51    21    47 1   
    52    23    48 1   
@<TRIPOS>SUBSTRUCTURE
     1 S94         1 TEMP              0 ****  ****    0 ROOT
