@<TRIPOS>MOLECULE
S95
   20    21     1     0     0
SMALL
No Charge or Current Charge


@<TRIPOS>ATOM
      1 C2           5.7760    -2.6260   -38.1150 ca         1 S95      -0.117000
      2 O2          10.2470    -2.7350   -37.3900 o          1 S95      -0.690200
      3 C4           7.0650    -2.7240   -40.5380 ca         1 S95       0.287900
      4 C5           7.7770    -3.0720   -39.3790 ca         1 S95      -0.103000
      5 C6           7.1330    -3.0290   -38.1210 ca         1 S95       0.064000
      6 C7           7.7760    -3.3650   -36.8940 ca         1 S95      -0.202500
      7 C8           7.0290    -3.2840   -35.6940 ca         1 S95      -0.029000
      8 C            5.6840    -2.8830   -35.7040 ca         1 S95      -0.131000
      9 C1           5.0560    -2.5540   -36.9110 ca         1 S95      -0.090000
     10 C3           5.1450    -2.2960   -39.3310 ca         1 S95       0.338900
     11 N            5.7710    -2.3410   -40.5280 nb         1 S95      -0.689000
     12 O            9.7790    -4.1380   -35.3830 o          1 S95      -0.690200
     13 O1           9.5430    -5.1040   -37.6680 o          1 S95      -0.690200
     14 S            9.5590    -3.9030   -36.8190 s6         1 S95       1.259100
     15 H1           7.5510    -2.7540   -41.5130 h4         1 S95       0.004100
     16 H2           8.8130    -3.3670   -39.4920 ha         1 S95       0.156000
     17 H3           7.4840    -3.5320   -34.7370 ha         1 S95       0.138000
     18 H4           5.1280    -2.8270   -34.7710 ha         1 S95       0.096000
     19 H5           4.0130    -2.2440   -36.9100 ha         1 S95       0.093000
     20 H6           4.1020    -1.9830   -39.3500 h4         1 S95      -0.004900
@<TRIPOS>BOND
     1     1     5 ar  
     2     1     9 ar  
     3     1    10 ar  
     4     2    14 1   
     5     3     4 ar  
     6     3    11 ar  
     7     3    15 1   
     8     4     5 ar  
     9     4    16 1   
    10     5     6 ar  
    11     6     7 ar  
    12     6    14 1   
    13     7     8 ar  
    14     7    17 1   
    15     8     9 ar  
    16     8    18 1   
    17     9    19 1   
    18    10    11 ar  
    19    10    20 1   
    20    12    14 1   
    21    13    14 1   
@<TRIPOS>SUBSTRUCTURE
     1 S95         1 TEMP              0 ****  ****    0 ROOT
