@<TRIPOS>MOLECULE
S95
   20    21     1     0     0
SMALL
bcc


@<TRIPOS>ATOM
      1 C2           5.7850    -2.6280   -38.1110 ca         1 S95      -0.182300
      2 O2          10.2240    -2.7350   -37.3800 o          1 S95      -0.690200
      3 C4           7.0640    -2.7300   -40.5090 ca         1 S95       0.353200
      4 C5           7.7720    -3.0780   -39.3930 ca         1 S95      -0.186300
      5 C6           7.1410    -3.0370   -38.1260 ca         1 S95       0.064000
      6 C7           7.7560    -3.3690   -36.8870 ca         1 S95      -0.202500
      7 C8           7.0350    -3.2920   -35.7260 ca         1 S95      -0.047000
      8 C            5.6850    -2.8850   -35.7240 ca         1 S95      -0.149000
      9 C1           5.0690    -2.5570   -36.8970 ca         1 S95      -0.108000
     10 C3           5.1700    -2.2940   -39.3410 ca         1 S95       0.404200
     11 N            5.7710    -2.3380   -40.4970 nb         1 S95      -0.689000
     12 O            9.7620    -4.1140   -35.3940 o          1 S95      -0.690200
     13 O1           9.5560    -5.0920   -37.6430 o          1 S95      -0.690200
     14 S            9.4810    -3.8750   -36.8180 s6         1 S95       1.259100
     15 H1           7.5410    -2.7590   -41.4810 h4         1 S95       0.004100
     16 H2           8.8020    -3.3780   -39.5010 ha         1 S95       0.174000
     17 H3           7.5050    -3.5450   -34.7860 ha         1 S95       0.156000
     18 H4           5.1480    -2.8350   -34.7870 ha         1 S95       0.114000
     19 H5           4.0330    -2.2400   -36.9130 ha         1 S95       0.111000
     20 H6           4.1300    -1.9790   -39.3310 h4         1 S95      -0.004900
@<TRIPOS>BOND
     1     1     5 ar  
     2     1     9 ar  
     3     1    10 ar  
     4     2    14 1   
     5     3     4 ar  
     6     3    11 ar  
     7     3    15 1   
     8     4     5 ar  
     9     4    16 1   
    10     5     6 ar  
    11     6     7 ar  
    12     6    14 1   
    13     7     8 ar  
    14     7    17 1   
    15     8     9 ar  
    16     8    18 1   
    17     9    19 1   
    18    10    11 ar  
    19    10    20 1   
    20    12    14 1   
    21    13    14 1   
@<TRIPOS>SUBSTRUCTURE
     1 S95         1 TEMP              0 ****  ****    0 ROOT
