@<TRIPOS>MOLECULE
S97
   56    59     1     0     0
SMALL
No Charge or Current Charge


@<TRIPOS>ATOM
      1 C29         -5.9670     4.2640     0.1440 c3         1 S97      -0.053800
      2 C26         -5.9860     2.7530    -0.0210 ca         1 S97       0.000700
      3 C27         -4.8040     2.0280    -0.2440 ca         1 S97      -0.215000
      4 C25         -7.1850     2.0280     0.0370 ca         1 S97      -0.232000
      5 C24         -7.1300     0.6410    -0.1230 ca         1 S97       0.598900
      6 N28         -8.2060    -0.1470    -0.0940 nv         1 S97      -1.054900
      7 N23         -6.0270    -0.0600    -0.3350 nb         1 S97      -0.753000
      8 C22         -4.8660     0.6300    -0.3950 ca         1 S97       0.397300
      9 C21         -3.6010    -0.1810    -0.6310 c3         1 S97      -0.124700
     10 C20         -2.8140    -0.4390     0.6720 c3         1 S97      -0.026100
     11 C16         -1.5340    -1.2250     0.4210 ca         1 S97      -0.081300
     12 C17         -0.3460    -0.5510     0.0800 ca         1 S97      -0.106000
     13 C15         -1.5290    -2.6290     0.5230 ca         1 S97      -0.105000
     14 C14         -0.3480    -3.3600     0.2910 ca         1 S97      -0.088300
     15 C18         -0.3440    -4.8780     0.4150 c3         1 S97       0.197100
     16 N19         -0.5010    -5.5290    -0.8980 n8         1 S97      -0.997200
     17 C13          0.8340    -2.6730    -0.0470 ca         1 S97      -0.081000
     18 C12          0.8400    -1.2700    -0.1570 ca         1 S97      -0.085300
     19 C11          2.1220    -0.5320    -0.5210 c3         1 S97      -0.027100
     20 C10          2.9180    -0.1010     0.7300 c3         1 S97      -0.125700
     21 C07          4.1880     0.6560     0.3780 ca         1 S97       0.373300
     22 N06          5.3420    -0.0620     0.3820 nb         1 S97      -0.688000
     23 C05          6.4700     0.6000     0.0650 ca         1 S97       0.371500
     24 N01          7.7730     0.1440    -0.0140 na         1 S97      -0.327400
     25 C02          8.6700     1.1720    -0.3840 cc         1 S97      -0.156100
     26 C03          7.8590     2.2840    -0.5300 cd         1 S97      -0.233200
     27 C04          6.4890     1.9380    -0.2530 ca         1 S97      -0.140800
     28 C09          5.3260     2.7120    -0.2690 ca         1 S97      -0.026000
     29 C08          4.1380     2.0350     0.0600 ca         1 S97      -0.193000
     30 H291        -6.0450     4.7630    -0.8280 hc         1 S97       0.046367
     31 H292        -6.8000     4.6080     0.7680 hc         1 S97       0.046367
     32 H293        -5.0380     4.6000     0.6210 hc         1 S97       0.046367
     33 H27         -3.8460     2.5380    -0.3000 ha         1 S97       0.121000
     34 H25         -8.1350     2.5270     0.2040 ha         1 S97       0.118000
     35 H281        -9.1050     0.2830    -0.2830 hn         1 S97       0.467500
     36 H282        -8.0640    -1.0840    -0.4520 hn         1 S97       0.467500
     37 H211        -3.8420    -1.1430    -1.1000 hc         1 S97       0.055700
     38 H212        -2.9540     0.3500    -1.3400 hc         1 S97       0.055700
     39 H201        -2.5770     0.5210     1.1470 hc         1 S97       0.054700
     40 H202        -3.4580    -0.9780     1.3790 hc         1 S97       0.054700
     41 H17         -0.3460     0.5340    -0.0020 ha         1 S97       0.108000
     42 H15         -2.4460    -3.1530     0.7840 ha         1 S97       0.110000
     43 H181         0.6010    -5.2110     0.8660 h1         1 S97       0.033700
     44 H182        -1.1660    -5.2000     1.0710 h1         1 S97       0.033700
     45 H13          1.7490    -3.2340    -0.2260 ha         1 S97       0.131000
     46 H191        -0.5900    -6.5420    -0.7570 hn         1 S97       0.395500
     47 H192        -1.4090    -5.2560    -1.2900 hn         1 S97       0.395500
     48 H111         2.7590    -1.1670    -1.1500 hc         1 S97       0.053200
     49 H112         1.8870     0.3540    -1.1230 hc         1 S97       0.053200
     50 H101         2.2790     0.5290     1.3600 hc         1 S97       0.058700
     51 H102         3.1540    -0.9900     1.3280 hc         1 S97       0.058700
     52 H08          3.1900     2.5640     0.0680 ha         1 S97       0.120000
     53 H01          8.0290    -0.8170     0.1760 hn         1 S97       0.359000
     54 H02          9.7440     1.0330    -0.5050 h4         1 S97       0.214000
     55 H03          8.2140     3.2740    -0.8140 ha         1 S97       0.207000
     56 H09          5.3390     3.7710    -0.5210 ha         1 S97       0.118000
@<TRIPOS>BOND
     1     1     2 1   
     2     1    30 1   
     3     1    31 1   
     4     1    32 1   
     5     2     3 ar  
     6     2     4 ar  
     7     3     8 ar  
     8     3    33 1   
     9     4     5 ar  
    10     4    34 1   
    11     5     6 1   
    12     5     7 ar  
    13     6    35 1   
    14     6    36 1   
    15     7     8 ar  
    16     8     9 1   
    17     9    10 1   
    18     9    37 1   
    19     9    38 1   
    20    10    11 1   
    21    10    39 1   
    22    10    40 1   
    23    11    12 ar  
    24    11    13 ar  
    25    12    18 ar  
    26    12    41 1   
    27    13    14 ar  
    28    13    42 1   
    29    14    15 1   
    30    14    17 ar  
    31    15    16 1   
    32    15    43 1   
    33    15    44 1   
    34    16    46 1   
    35    16    47 1   
    36    17    18 ar  
    37    17    45 1   
    38    18    19 1   
    39    19    20 1   
    40    19    48 1   
    41    19    49 1   
    42    20    21 1   
    43    20    50 1   
    44    20    51 1   
    45    21    22 ar  
    46    21    29 ar  
    47    22    23 ar  
    48    23    24 1   
    49    23    27 ar  
    50    24    25 1   
    51    24    53 1   
    52    25    26 2   
    53    25    54 1   
    54    26    27 1   
    55    26    55 1   
    56    27    28 ar  
    57    28    29 ar  
    58    28    56 1   
    59    29    52 1   
@<TRIPOS>SUBSTRUCTURE
     1 S97         1 TEMP              0 ****  ****    0 ROOT
