@<TRIPOS>MOLECULE
S97
   56    59     1     0     0
SMALL
bcc


@<TRIPOS>ATOM
      1 C29         -6.0620     4.3160    -0.4560 c3         1 S97      -0.053800
      2 C26         -5.9710     2.8290    -0.2950 ca         1 S97       0.000700
      3 C27         -4.7790     2.1520    -0.5800 ca         1 S97      -0.298300
      4 C25         -7.0550     2.0870     0.1270 ca         1 S97      -0.315300
      5 C24         -6.9220     0.6930     0.2500 ca         1 S97       0.664200
      6 N28         -7.9610    -0.0680     0.7060 nv         1 S97      -0.944500
      7 N23         -5.7870     0.0610    -0.0260 nb         1 S97      -0.753000
      8 C22         -4.7360     0.7780    -0.4300 ca         1 S97       0.462600
      9 C21         -3.4700     0.0090    -0.6780 c3         1 S97      -0.124700
     10 C20         -2.8280    -0.4550     0.6360 c3         1 S97      -0.026100
     11 C16         -1.5660    -1.2390     0.4020 ca         1 S97      -0.081300
     12 C17         -0.3800    -0.5860     0.0860 ca         1 S97      -0.124000
     13 C15         -1.5670    -2.6300     0.4520 ca         1 S97      -0.123000
     14 C14         -0.4120    -3.3650     0.2000 ca         1 S97      -0.088300
     15 C18         -0.4320    -4.8690     0.3080 c3         1 S97       0.197100
     16 N19          0.3550    -5.5030    -0.7360 n8         1 S97      -0.886800
     17 C13          0.7590    -2.6850    -0.1210 ca         1 S97      -0.099000
     18 C12          0.7880    -1.2950    -0.1790 ca         1 S97      -0.085300
     19 C11          2.0700    -0.5620    -0.4620 c3         1 S97      -0.027100
     20 C10          2.8470    -0.2600     0.8290 c3         1 S97      -0.125700
     21 C07          4.0960     0.5240     0.5470 ca         1 S97       0.438600
     22 N06          5.1690    -0.1620     0.1740 nb         1 S97      -0.688000
     23 C05          6.2410     0.5560    -0.1220 ca         1 S97       0.436800
     24 N01          7.4450     0.0650    -0.5210 na         1 S97      -0.277100
     25 C02          8.3070     1.1060    -0.7350 cc         1 S97      -0.106100
     26 C03          7.6810     2.2920    -0.4790 cd         1 S97      -0.183200
     27 C04          6.3490     1.9660    -0.0820 ca         1 S97      -0.206100
     28 C09          5.2100     2.6630     0.3150 ca         1 S97      -0.044000
     29 C08          4.0830     1.9280     0.6300 ca         1 S97      -0.276300
     30 H291        -5.9970     4.5950    -1.5090 hc         1 S97       0.046367
     31 H292        -6.9980     4.7080    -0.0610 hc         1 S97       0.046367
     32 H293        -5.2390     4.8160     0.0570 hc         1 S97       0.046367
     33 H27         -3.9010     2.6920    -0.9100 ha         1 S97       0.139000
     34 H25         -7.9960     2.5670     0.3680 ha         1 S97       0.136000
     35 H281        -8.8900     0.3080     0.6100 hn         1 S97       0.412300
     36 H282        -7.8990    -1.0560     0.5230 hn         1 S97       0.412300
     37 H211        -3.6900    -0.8640    -1.2980 hc         1 S97       0.055700
     38 H212        -2.7600     0.6270    -1.2320 hc         1 S97       0.055700
     39 H201        -2.6110     0.4200     1.2540 hc         1 S97       0.054700
     40 H202        -3.5480    -1.0620     1.1880 hc         1 S97       0.054700
     41 H17         -0.3640     0.4990     0.0400 ha         1 S97       0.126000
     42 H15         -2.4880    -3.1510     0.6920 ha         1 S97       0.128000
     43 H181         0.0020    -5.1560     1.2700 h1         1 S97       0.033700
     44 H182        -1.4790    -5.2030     0.3430 h1         1 S97       0.033700
     45 H13          1.6600    -3.2490    -0.3330 ha         1 S97       0.149000
     46 H191         0.3940    -6.5000    -0.5630 hn         1 S97       0.340300
     47 H192        -0.1140    -5.3930    -1.6260 hn         1 S97       0.340300
     48 H111         2.7060    -1.1500    -1.1280 hc         1 S97       0.053200
     49 H112         1.8540     0.3780    -0.9760 hc         1 S97       0.053200
     50 H101         2.2020     0.2950     1.5140 hc         1 S97       0.058700
     51 H102         3.1070    -1.2010     1.3200 hc         1 S97       0.058700
     52 H08          3.1760     2.4280     0.9450 ha         1 S97       0.138000
     53 H01          7.6690    -0.9100    -0.6350 hn         1 S97       0.308700
     54 H02          9.3180     0.9180    -1.0600 h4         1 S97       0.164000
     55 H03          8.1180     3.2740    -0.5680 ha         1 S97       0.157000
     56 H09          5.2030     3.7440     0.3790 ha         1 S97       0.136000
@<TRIPOS>BOND
     1     1     2 1   
     2     1    30 1   
     3     1    31 1   
     4     1    32 1   
     5     2     3 ar  
     6     2     4 ar  
     7     3     8 ar  
     8     3    33 1   
     9     4     5 ar  
    10     4    34 1   
    11     5     6 1   
    12     5     7 ar  
    13     6    35 1   
    14     6    36 1   
    15     7     8 ar  
    16     8     9 1   
    17     9    10 1   
    18     9    37 1   
    19     9    38 1   
    20    10    11 1   
    21    10    39 1   
    22    10    40 1   
    23    11    12 ar  
    24    11    13 ar  
    25    12    18 ar  
    26    12    41 1   
    27    13    14 ar  
    28    13    42 1   
    29    14    15 1   
    30    14    17 ar  
    31    15    16 1   
    32    15    43 1   
    33    15    44 1   
    34    16    46 1   
    35    16    47 1   
    36    17    18 ar  
    37    17    45 1   
    38    18    19 1   
    39    19    20 1   
    40    19    48 1   
    41    19    49 1   
    42    20    21 1   
    43    20    50 1   
    44    20    51 1   
    45    21    22 ar  
    46    21    29 ar  
    47    22    23 ar  
    48    23    24 1   
    49    23    27 ar  
    50    24    25 1   
    51    24    53 1   
    52    25    26 2   
    53    25    54 1   
    54    26    27 1   
    55    26    55 1   
    56    27    28 ar  
    57    28    29 ar  
    58    28    56 1   
    59    29    52 1   
@<TRIPOS>SUBSTRUCTURE
     1 S97         1 TEMP              0 ****  ****    0 ROOT
