@<TRIPOS>MOLECULE
S98
   34    37     1     0     0
SMALL
abcg2


@<TRIPOS>ATOM
      1 N2           0.4820    -0.7660     0.2750 na         1 S98      -0.354600
      2 C3          -0.8630    -0.4840     0.1530 ca         1 S98      -0.121200
      3 C12         -0.9330     0.9310     0.1900 ca         1 S98       0.158400
      4 N13          0.3190     1.4630     0.3270 nc         1 S98      -0.658100
      5 C1           1.1290     0.4260     0.3710 cd         1 S98       0.674700
      6 N14          2.4680     0.5300     0.4680 nu         1 S98      -0.893400
      7 C15          3.3360    -0.5840     0.7870 c3         1 S98       0.300100
      8 C16          4.7520    -0.2590     0.4490 cc         1 S98      -0.254300
      9 C11         -2.1600     1.5650     0.0940 ca         1 S98      -0.093000
     10 C10         -3.3160     0.7860    -0.0370 ca         1 S98       0.215400
     11 C5          -3.2110    -0.6260    -0.0710 ca         1 S98      -0.228600
     12 C6          -4.4210    -1.4110    -0.2120 c          1 S98       0.593600
     13 O21         -4.4780    -2.6310    -0.2610 o          1 S98      -0.553000
     14 N7          -5.5690    -0.6560    -0.2910 ns         1 S98      -0.453400
     15 C8          -5.5900     0.7130    -0.2480 cc         1 S98       0.706800
     16 N22         -6.8120     1.2870    -0.2870 nv         1 S98      -1.036200
     17 N9          -4.5240     1.4320    -0.1320 nd         1 S98      -0.701100
     18 C4          -1.9710    -1.2760     0.0250 ca         1 S98      -0.025000
     19 C121         5.8560    -0.4140     1.2300 cd         1 S98      -0.113000
     20 C13          7.0590    -0.0430     0.5680 cd         1 S98      -0.136000
     21 C14          6.8410     0.3940    -0.7020 cc         1 S98      -0.238000
     22 S1           5.1750     0.3540    -1.1060 ss         1 S98       0.242000
     23 HN2          0.8900    -1.6860     0.3020 hn         1 S98       0.357000
     24 HN14         2.7920     1.4450     0.7410 hn         1 S98       0.513000
     25 H15          3.2820    -0.8640     1.8440 h1         1 S98       0.047700
     26 H15A         3.0210    -1.4560     0.2070 h1         1 S98       0.047700
     27 H11         -2.2400     2.6440     0.1200 ha         1 S98       0.145000
     28 HN7         -6.4410    -1.1630    -0.3820 hn         1 S98       0.323500
     29 HN22        -7.5850     0.7820    -0.6890 hn         1 S98       0.487500
     30 HN2A        -6.8300     2.2810    -0.4400 hn         1 S98       0.487500
     31 H4          -1.9090    -2.3560    -0.0030 ha         1 S98       0.135000
     32 H111         5.8130    -0.7820     2.2460 ha         1 S98       0.134000
     33 H13          8.0390    -0.0940     1.0200 ha         1 S98       0.137000
     34 H151         7.5660     0.7460    -1.4190 h4         1 S98       0.153000
@<TRIPOS>BOND
     1     1     2 1   
     2     1     5 1   
     3     1    23 1   
     4     2     3 ar  
     5     2    18 ar  
     6     3     4 1   
     7     3     9 ar  
     8     4     5 2   
     9     5     6 1   
    10     6     7 1   
    11     6    24 1   
    12     7     8 1   
    13     7    25 1   
    14     7    26 1   
    15     8    19 2   
    16     8    22 1   
    17     9    10 ar  
    18     9    27 1   
    19    10    11 ar  
    20    10    17 1   
    21    11    12 1   
    22    11    18 ar  
    23    12    13 2   
    24    12    14 1   
    25    14    15 1   
    26    14    28 1   
    27    15    16 1   
    28    15    17 2   
    29    16    29 1   
    30    16    30 1   
    31    18    31 1   
    32    19    20 1   
    33    19    32 1   
    34    20    21 2   
    35    20    33 1   
    36    21    22 1   
    37    21    34 1   
@<TRIPOS>SUBSTRUCTURE
     1 S98         1 TEMP              0 ****  ****    0 ROOT
