@<TRIPOS>MOLECULE
S98
   34    37     1     0     0
SMALL
No Charge or Current Charge


@<TRIPOS>ATOM
      1 N2           0.4110    -1.0910     0.2560 na         1 S98      -0.354600
      2 C3          -0.8780    -0.6380     0.1750 ca         1 S98      -0.121200
      3 C12         -0.8580     0.7270     0.2270 ca         1 S98       0.158400
      4 N13          0.4350     1.2150     0.3440 nc         1 S98      -0.658100
      5 C1           1.1380     0.0850     0.3540 cd         1 S98       0.674700
      6 N14          2.4740     0.1400     0.4620 nu         1 S98      -0.893400
      7 C15          3.4150    -0.9590     0.3060 c3         1 S98       0.300100
      8 C16          4.7970    -0.3840     0.2460 cc         1 S98      -0.254300
      9 C11         -2.0490     1.4590     0.1640 ca         1 S98      -0.093000
     10 C10         -3.2770     0.7730     0.0450 ca         1 S98       0.215400
     11 C5          -3.2770    -0.6440    -0.0080 ca         1 S98      -0.228600
     12 C6          -4.5790    -1.3450    -0.1300 c          1 S98       0.593600
     13 O21         -4.7040    -2.5580    -0.1770 o          1 S98      -0.553000
     14 N7          -5.6390    -0.5140    -0.1850 ns         1 S98      -0.453400
     15 C8          -5.5390     0.8260    -0.1290 cc         1 S98       0.706800
     16 N22         -6.6780     1.4920    -0.1970 nv         1 S98      -1.036200
     17 N9          -4.4510     1.5460    -0.0160 nd         1 S98      -0.701100
     18 C4          -2.0640    -1.3690     0.0570 ca         1 S98      -0.025000
     19 C121         5.5050     0.2300     1.2510 cd         1 S98      -0.113000
     20 C13          6.8010     0.6530     0.8540 cd         1 S98      -0.136000
     21 C14          7.0940     0.3630    -0.4540 cc         1 S98      -0.238000
     22 S1           5.7470    -0.4580    -1.2370 ss         1 S98       0.242000
     23 HN2          0.7690    -2.0340     0.2600 hn         1 S98       0.357000
     24 HN14         2.8390     1.0870     0.4540 hn         1 S98       0.513000
     25 H15          3.3410    -1.6510     1.1560 h1         1 S98       0.047700
     26 H15A         3.2030    -1.5200    -0.6160 h1         1 S98       0.047700
     27 H11         -2.0260     2.5430     0.2070 ha         1 S98       0.145000
     28 HN7         -6.5470    -0.9420    -0.2460 hn         1 S98       0.323500
     29 HN22        -7.4260     1.0640    -0.7290 hn         1 S98       0.487500
     30 HN2A        -6.5630     2.4880    -0.3350 hn         1 S98       0.487500
     31 H4          -2.0490    -2.4570     0.0180 ha         1 S98       0.135000
     32 H111         5.1120     0.3770     2.2530 ha         1 S98       0.134000
     33 H13          7.4940     1.1570     1.5220 ha         1 S98       0.137000
     34 H151         7.9950     0.5670    -1.0180 h4         1 S98       0.153000
@<TRIPOS>BOND
     1     1     2 1   
     2     1     5 1   
     3     1    23 1   
     4     2     3 ar  
     5     2    18 ar  
     6     3     4 1   
     7     3     9 ar  
     8     4     5 2   
     9     5     6 1   
    10     6     7 1   
    11     6    24 1   
    12     7     8 1   
    13     7    25 1   
    14     7    26 1   
    15     8    19 2   
    16     8    22 1   
    17     9    10 ar  
    18     9    27 1   
    19    10    11 ar  
    20    10    17 1   
    21    11    12 1   
    22    11    18 ar  
    23    12    13 2   
    24    12    14 1   
    25    14    15 1   
    26    14    28 1   
    27    15    16 1   
    28    15    17 2   
    29    16    29 1   
    30    16    30 1   
    31    18    31 1   
    32    19    20 1   
    33    19    32 1   
    34    20    21 2   
    35    20    33 1   
    36    21    22 1   
    37    21    34 1   
@<TRIPOS>SUBSTRUCTURE
     1 S98         1 TEMP              0 ****  ****    0 ROOT
