@<TRIPOS>MOLECULE
S99
   50    52     1     0     0
SMALL
No Charge or Current Charge


@<TRIPOS>ATOM
      1 CAI         17.5090    -9.9670    32.3070 ca         1 S99      -0.112500
      2 CAE         16.4200    -9.3340    32.9320 ca         1 S99      -0.107500
      3 CAC         15.7750    -9.9520    34.0170 ca         1 S99      -0.115000
      4 CAF         16.2200   -11.2030    34.4760 ca         1 S99      -0.107500
      5 CAJ         17.3090   -11.8360    33.8510 ca         1 S99      -0.112500
      6 CAV         17.9580   -11.2220    32.7620 ca         1 S99      -0.072300
      7 CAQ         19.1410   -11.9050    32.0870 c3         1 S99      -0.031100
      8 CAO         20.4840   -11.5160    32.7390 c3         1 S99      -0.074400
      9 CAM         21.7010   -12.1960    32.0740 c3         1 S99      -0.079400
     10 CAN         23.0450   -11.8050    32.7350 c3         1 S99      -0.073400
     11 CAP         24.2980   -12.3930    32.0420 c3         1 S99      -0.074400
     12 CAR         24.4000   -13.9450    32.1190 c3         1 S99      -0.086400
     13 CAZ         25.6980   -14.5880    31.5460 c3         1 S99       0.384700
     14 OAA         25.8490   -14.1980    30.1900 oh         1 S99      -0.672500
     15 OXT         26.8220   -14.0040    32.1920 oh         1 S99      -0.672500
     16 CAY         25.6950   -16.1360    31.6940 cc         1 S99       0.422300
     17 NAT         24.6400   -16.9480    31.7400 nd         1 S99      -0.659000
     18 OAU         26.9000   -16.7810    31.7830 os         1 S99      -0.264000
     19 CAL         26.5640   -18.0940    31.8930 cc         1 S99       0.164900
     20 CAX         25.1990   -18.2120    31.8690 cd         1 S99       0.172000
     21 CAW         24.4260   -19.4760    31.9640 ca         1 S99       0.325000
     22 CAK         23.0140   -19.4670    31.9270 ca         1 S99      -0.127000
     23 CAG         22.3090   -20.6780    32.0190 ca         1 S99      -0.076000
     24 CAD         23.0460   -21.8650    32.1450 ca         1 S99      -0.162000
     25 CAH         24.4490   -21.7980    32.1750 ca         1 S99       0.338900
     26 NAS         25.1320   -20.6330    32.0870 nb         1 S99      -0.678000
     27 HAI         18.0050    -9.4800    31.4700 ha         1 S99       0.110000
     28 HAE         16.0780    -8.3640    32.5760 ha         1 S99       0.111000
     29 HAC         14.9330    -9.4620    34.5010 ha         1 S99       0.112000
     30 HAF         15.7230   -11.6820    35.3170 ha         1 S99       0.111000
     31 HAJ         17.6490   -12.8030    34.2140 ha         1 S99       0.110000
     32 HAQ1        19.0200   -12.9950    32.1320 hc         1 S99       0.047700
     33 HAQ2        19.1680   -11.6450    31.0220 hc         1 S99       0.047700
     34 HAO1        20.6050   -10.4270    32.6860 hc         1 S99       0.041700
     35 HAO2        20.4570   -11.7830    33.8030 hc         1 S99       0.041700
     36 HAM1        21.5680   -13.2830    32.1270 hc         1 S99       0.039700
     37 HAM2        21.7290   -11.9260    31.0110 hc         1 S99       0.039700
     38 HAN1        23.1320   -10.7110    32.7310 hc         1 S99       0.042200
     39 HAN2        23.0360   -12.1120    33.7880 hc         1 S99       0.042200
     40 HAP1        24.3050   -12.0670    30.9940 hc         1 S99       0.044200
     41 HAP2        25.1820   -11.9480    32.5150 hc         1 S99       0.044200
     42 HAR1        24.3040   -14.2510    33.1680 hc         1 S99       0.074200
     43 HAR2        23.5440   -14.3840    31.5930 hc         1 S99       0.074200
     44 HAL         27.3590   -18.8220    31.9780 h4         1 S99       0.079100
     45 HAK         22.4740   -18.5290    31.8280 ha         1 S99       0.143000
     46 HAG         21.2210   -20.6950    31.9930 ha         1 S99       0.121000
     47 HAD         22.5460   -22.8260    32.2200 ha         1 S99       0.124000
     48 HAH         25.0450   -22.7050    32.2720 h4         1 S99       0.019100
     49 HAA         25.5870   -13.2560    30.1630 ho         1 S99       0.464000
     50 HXT         27.5670   -14.6200    32.0280 ho         1 S99       0.464000
@<TRIPOS>BOND
     1     1     2 ar  
     2     1     6 ar  
     3     1    27 1   
     4     2     3 ar  
     5     2    28 1   
     6     3     4 ar  
     7     3    29 1   
     8     4     5 ar  
     9     4    30 1   
    10     5     6 ar  
    11     5    31 1   
    12     6     7 1   
    13     7     8 1   
    14     7    32 1   
    15     7    33 1   
    16     8     9 1   
    17     8    34 1   
    18     8    35 1   
    19     9    10 1   
    20     9    36 1   
    21     9    37 1   
    22    10    11 1   
    23    10    38 1   
    24    10    39 1   
    25    11    12 1   
    26    11    40 1   
    27    11    41 1   
    28    12    13 1   
    29    12    42 1   
    30    12    43 1   
    31    13    14 1   
    32    13    15 1   
    33    13    16 1   
    34    14    49 1   
    35    15    50 1   
    36    16    17 2   
    37    16    18 1   
    38    17    20 1   
    39    18    19 1   
    40    19    20 2   
    41    19    44 1   
    42    20    21 1   
    43    21    22 ar  
    44    21    26 ar  
    45    22    23 ar  
    46    22    45 1   
    47    23    24 ar  
    48    23    46 1   
    49    24    25 ar  
    50    24    47 1   
    51    25    26 ar  
    52    25    48 1   
@<TRIPOS>SUBSTRUCTURE
     1 S99         1 TEMP              0 ****  ****    0 ROOT
