@<TRIPOS>MOLECULE
S99
   50    52     1     0     0
SMALL
abcg2


@<TRIPOS>ATOM
      1 CAI         18.0560   -10.3260    33.6960 ca         1 S99      -0.112500
      2 CAE         16.8840    -9.8630    34.2920 ca         1 S99      -0.107500
      3 CAC         15.6490   -10.3640    33.8960 ca         1 S99      -0.115000
      4 CAF         15.5960   -11.3360    32.9000 ca         1 S99      -0.107500
      5 CAJ         16.7670   -11.7950    32.3110 ca         1 S99      -0.112500
      6 CAV         18.0180   -11.2980    32.6950 ca         1 S99      -0.072300
      7 CAQ         19.2620   -11.8140    32.0060 c3         1 S99      -0.031100
      8 CAO         20.5910   -11.5120    32.6910 c3         1 S99      -0.074400
      9 CAM         21.7760   -12.1510    31.9710 c3         1 S99      -0.079400
     10 CAN         23.1130   -11.8340    32.6380 c3         1 S99      -0.073400
     11 CAP         24.3340   -12.4260    31.9280 c3         1 S99      -0.074400
     12 CAR         24.3730   -13.9520    31.9970 c3         1 S99      -0.086400
     13 CAZ         25.6290   -14.5660    31.3850 c3         1 S99       0.384700
     14 OAA         25.7820   -14.2610    30.0110 oh         1 S99      -0.672500
     15 OXT         26.7430   -14.0990    32.1250 oh         1 S99      -0.672500
     16 CAY         25.5780   -16.0750    31.4480 cc         1 S99       0.422300
     17 NAT         24.6570   -16.8440    31.9190 nd         1 S99      -0.659000
     18 OAU         26.6600   -16.7520    30.9830 os         1 S99      -0.264000
     19 CAL         26.3720   -18.0720    31.1910 cc         1 S99       0.164900
     20 CAX         25.1440   -18.1450    31.7640 cd         1 S99       0.172000
     21 CAW         24.3900   -19.3270    32.1790 ca         1 S99       0.325000
     22 CAK         23.1300   -19.2070    32.7690 ca         1 S99      -0.127000
     23 CAG         22.4570   -20.3590    33.1480 ca         1 S99      -0.076000
     24 CAD         23.0560   -21.5920    32.9280 ca         1 S99      -0.162000
     25 CAH         24.3130   -21.6150    32.3320 ca         1 S99       0.338900
     26 NAS         24.9720   -20.5180    31.9630 nb         1 S99      -0.678000
     27 HAI         19.0050    -9.9220    34.0220 ha         1 S99       0.110000
     28 HAE         16.9400    -9.1090    35.0670 ha         1 S99       0.111000
     29 HAC         14.7390   -10.0060    34.3600 ha         1 S99       0.112000
     30 HAF         14.6410   -11.7390    32.5850 ha         1 S99       0.111000
     31 HAJ         16.7160   -12.5550    31.5390 ha         1 S99       0.110000
     32 HAQ1        19.1600   -12.8970    31.8830 hc         1 S99       0.047700
     33 HAQ2        19.2880   -11.4070    30.9880 hc         1 S99       0.047700
     34 HAO1        20.7480   -10.4310    32.7450 hc         1 S99       0.041700
     35 HAO2        20.5610   -11.8720    33.7250 hc         1 S99       0.041700
     36 HAM1        21.6240   -13.2330    31.9270 hc         1 S99       0.039700
     37 HAM2        21.8030   -11.8020    30.9320 hc         1 S99       0.039700
     38 HAN1        23.2320   -10.7470    32.6870 hc         1 S99       0.042200
     39 HAN2        23.0950   -12.1890    33.6750 hc         1 S99       0.042200
     40 HAP1        24.3250   -12.0940    30.8850 hc         1 S99       0.044200
     41 HAP2        25.2410   -12.0230    32.3820 hc         1 S99       0.044200
     42 HAR1        24.3160   -14.2730    33.0390 hc         1 S99       0.074200
     43 HAR2        23.5160   -14.3840    31.4820 hc         1 S99       0.074200
     44 HAL         27.1110   -18.7910    30.8880 h4         1 S99       0.079100
     45 HAK         22.6990   -18.2280    32.9230 ha         1 S99       0.143000
     46 HAG         21.4790   -20.2940    33.6090 ha         1 S99       0.121000
     47 HAD         22.5680   -22.5160    33.2070 ha         1 S99       0.124000
     48 HAH         24.8110   -22.5600    32.1430 h4         1 S99       0.019100
     49 HAA         25.7730   -13.2990    29.9120 ho         1 S99       0.464000
     50 HXT         27.5500   -14.4520    31.7220 ho         1 S99       0.464000
@<TRIPOS>BOND
     1     1     2 ar  
     2     1     6 ar  
     3     1    27 1   
     4     2     3 ar  
     5     2    28 1   
     6     3     4 ar  
     7     3    29 1   
     8     4     5 ar  
     9     4    30 1   
    10     5     6 ar  
    11     5    31 1   
    12     6     7 1   
    13     7     8 1   
    14     7    32 1   
    15     7    33 1   
    16     8     9 1   
    17     8    34 1   
    18     8    35 1   
    19     9    10 1   
    20     9    36 1   
    21     9    37 1   
    22    10    11 1   
    23    10    38 1   
    24    10    39 1   
    25    11    12 1   
    26    11    40 1   
    27    11    41 1   
    28    12    13 1   
    29    12    42 1   
    30    12    43 1   
    31    13    14 1   
    32    13    15 1   
    33    13    16 1   
    34    14    49 1   
    35    15    50 1   
    36    16    17 2   
    37    16    18 1   
    38    17    20 1   
    39    18    19 1   
    40    19    20 2   
    41    19    44 1   
    42    20    21 1   
    43    21    22 ar  
    44    21    26 ar  
    45    22    23 ar  
    46    22    45 1   
    47    23    24 ar  
    48    23    46 1   
    49    24    25 ar  
    50    24    47 1   
    51    25    26 ar  
    52    25    48 1   
@<TRIPOS>SUBSTRUCTURE
     1 S99         1 TEMP              0 ****  ****    0 ROOT
