@<TRIPOS>MOLECULE
S9A
   61    64     1     0     0
SMALL
No Charge or Current Charge


@<TRIPOS>ATOM
      1 N1         -21.3980     8.3110    -6.9200 ns         1 S9A      -0.507900
      2 N3         -19.8020     5.4210    -0.3670 nb         1 S9A      -0.250000
      3 C4         -20.9240     6.7080    -2.7120 ca         1 S9A      -0.064000
      4 C5         -21.6070     7.1650    -3.8580 ca         1 S9A      -0.084300
      5 C6         -22.6840     8.2370    -3.7040 c3         1 S9A      -0.047800
      6 C7         -21.2830     6.6240    -5.1240 ca         1 S9A      -0.086300
      7 C8         -21.9870     7.0790    -6.3990 c3         1 S9A       0.152300
      8 C10        -20.7530    10.1060    -9.6220 cy         1 S9A       0.083000
      9 C15        -22.0250    11.2400    -8.3470 cy         1 S9A       0.083000
     10 C17        -19.6030     5.1960    -4.0690 ca         1 S9A      -0.082000
     11 C20        -22.0240     6.1560     1.5870 cc         1 S9A      -0.176000
     12 C22        -21.4390     5.8270     3.7200 cd         1 S9A       0.207900
     13 C1         -17.9150     4.6250    -1.5910 ca         1 S9A      -0.274000
     14 C11        -21.2140    11.5980    -9.6360 cy         1 S9A       0.134300
     15 C12        -22.6770    13.2690   -10.7150 c3         1 S9A       0.169300
     16 C14        -23.6470    13.2930   -11.9100 c3         1 S9A      -0.104100
     17 C16        -20.2780     5.6430    -5.2150 ca         1 S9A      -0.108000
     18 C18        -19.1700     4.9950     0.7410 ca         1 S9A       0.386900
     19 C19        -21.0110     5.6920     2.3720 cd         1 S9A       0.182000
     20 C2         -19.1910     5.2390    -1.5550 cp         1 S9A       0.228500
     21 C23        -17.3360     4.2190    -0.3790 ca         1 S9A       0.150900
     22 C3         -19.9080     5.7180    -2.7870 cp         1 S9A      -0.157500
     23 C9         -21.8690     9.0110    -7.9920 c          1 S9A       0.648100
     24 N2         -21.0180    10.1410    -8.1400 nj         1 S9A      -0.433800
     25 N5         -23.0010     6.5480     2.5000 na         1 S9A       0.117800
     26 N6         -22.6500     6.3470     3.8230 nc         1 S9A      -0.509800
     27 N7         -17.9660     4.4030     0.7960 nb         1 S9A      -0.242000
     28 O1         -21.9650    12.0190   -10.7880 os         1 S9A      -0.454000
     29 O2         -22.8540     8.5950    -8.5930 o          1 S9A      -0.632100
     30 H1         -20.5850     8.6950    -6.4580 hn         1 S9A       0.303500
     31 H2         -21.1810     7.1400    -1.7470 ha         1 S9A       0.127000
     32 H3         -23.6710     7.8450    -3.9750 hc         1 S9A       0.043033
     33 H4         -22.7510     8.6030    -2.6730 hc         1 S9A       0.043033
     34 H5         -22.4760     9.1040    -4.3420 hc         1 S9A       0.043033
     35 H6         -23.0560     7.2420    -6.2060 h1         1 S9A       0.068700
     36 H7         -21.9070     6.2990    -7.1670 h1         1 S9A       0.068700
     37 H8         -21.3770     9.4480   -10.2400 h1         1 S9A       0.064200
     38 H9         -19.6950     9.9670    -9.8700 h1         1 S9A       0.064200
     39 H10        -21.0550    14.4600    -9.8460 hc         1 S9A       0.045033
     40 H11        -20.9910    14.3320   -11.6220 hc         1 S9A       0.045033
     41 H12        -22.1840    15.3910   -10.8400 hc         1 S9A       0.045033
     42 H13        -21.9880    12.0130    -7.5720 h1         1 S9A       0.064200
     43 H14        -23.0650    10.9530    -8.5470 h1         1 S9A       0.064200
     44 H15        -18.8470     4.4250    -4.1840 ha         1 S9A       0.115000
     45 H17        -25.1060     6.4430     2.5000 h1         1 S9A       0.056700
     46 H18        -24.4270     8.0900     2.6800 h1         1 S9A       0.056700
     47 H19        -24.3910     7.2770     1.0880 h1         1 S9A       0.056700
     48 H20        -20.8990     5.5600     4.6190 h4         1 S9A       0.039100
     49 H21        -17.3780     4.4790    -2.5220 ha         1 S9A       0.135000
     50 H22        -20.3850    12.2890    -9.4410 h1         1 S9A       0.056700
     51 H23        -23.2650    13.3320    -9.7900 h1         1 S9A       0.030700
     52 H24        -24.2320    14.2200   -11.9110 hc         1 S9A       0.045033
     53 H25        -23.1010    13.2280   -12.8590 hc         1 S9A       0.045033
     54 H26        -24.3470    12.4510   -11.8530 hc         1 S9A       0.045033
     55 H27        -20.0180     5.2200    -6.1830 ha         1 S9A       0.114000
     56 H28        -16.3560     3.7450    -0.3460 h4         1 S9A       0.022100
     57 N4         -19.7890     5.1750     1.9740 nu         1 S9A      -0.899900
     58 C13        -21.6610    14.4310   -10.7590 c3         1 S9A      -0.104100
     59 H16        -22.1400     6.2390     0.5160 h4         1 S9A       0.177000
     60 C21        -24.3130     7.1250     2.1710 c3         1 S9A       0.076900
     61 H29        -19.2070     4.8510     2.7500 hn         1 S9A       0.517000
@<TRIPOS>BOND
     1     1     7 1   
     2     1    23 1   
     3     1    30 1   
     4     2    18 ar  
     5     2    20 ar  
     6     3     4 ar  
     7     3    22 ar  
     8     3    31 1   
     9     4     5 1   
    10     4     6 ar  
    11     5    32 1   
    12     5    33 1   
    13     5    34 1   
    14     6     7 1   
    15     6    17 ar  
    16     7    35 1   
    17     7    36 1   
    18     8    14 1   
    19     8    24 1   
    20     8    37 1   
    21     8    38 1   
    22     9    14 1   
    23     9    24 1   
    24     9    42 1   
    25     9    43 1   
    26    10    17 ar  
    27    10    22 ar  
    28    10    44 1   
    29    11    19 2   
    30    11    25 1   
    31    11    59 1   
    32    12    19 1   
    33    12    26 2   
    34    12    48 1   
    35    13    20 ar  
    36    13    21 ar  
    37    13    49 1   
    38    14    28 1   
    39    14    50 1   
    40    15    16 1   
    41    15    28 1   
    42    15    51 1   
    43    15    58 1   
    44    16    52 1   
    45    16    53 1   
    46    16    54 1   
    47    17    55 1   
    48    18    27 ar  
    49    18    57 1   
    50    19    57 1   
    51    20    22 1   
    52    21    27 ar  
    53    21    56 1   
    54    23    24 1   
    55    23    29 2   
    56    25    26 1   
    57    25    60 1   
    58    39    58 1   
    59    40    58 1   
    60    41    58 1   
    61    45    60 1   
    62    46    60 1   
    63    47    60 1   
    64    57    61 1   
@<TRIPOS>SUBSTRUCTURE
     1 S9A         1 TEMP              0 ****  ****    0 ROOT
