@<TRIPOS>MOLECULE
S9A
   61    64     1     0     0
SMALL
abcg2


@<TRIPOS>ATOM
      1 N1         -22.7000     9.5440    -6.3320 ns         1 S9A      -0.507900
      2 N3         -19.7790     5.7770    -0.5860 nb         1 S9A      -0.250000
      3 C4         -21.6990     6.7110    -2.4400 ca         1 S9A      -0.064000
      4 C5         -22.6460     7.3370    -3.2420 ca         1 S9A      -0.084300
      5 C6         -24.1110     7.1790    -2.9370 c3         1 S9A      -0.047800
      6 C7         -22.2090     8.1150    -4.3310 ca         1 S9A      -0.086300
      7 C8         -23.2340     8.8030    -5.2110 c3         1 S9A       0.152300
      8 C10        -21.3420     9.3790    -9.7620 cy         1 S9A       0.083000
      9 C15        -21.4850    11.1300    -8.5060 cy         1 S9A       0.083000
     10 C17        -19.9100     7.6010    -3.7640 ca         1 S9A      -0.082000
     11 C20        -21.6920     5.6050     1.6190 cc         1 S9A      -0.176000
     12 C22        -20.8590     4.5400     3.3740 cd         1 S9A       0.207900
     13 C1         -18.0540     5.8440    -2.2220 ca         1 S9A      -0.274000
     14 C11        -21.0090    10.8710    -9.9660 cy         1 S9A       0.134300
     15 C12        -21.5050    12.8550   -11.2060 c3         1 S9A       0.169300
     16 C14        -22.7450    13.4430   -11.8530 c3         1 S9A      -0.104100
     17 C16        -20.8450     8.2380    -4.5690 ca         1 S9A      -0.108000
     18 C18        -18.9100     5.1510     0.2120 ca         1 S9A       0.386900
     19 C19        -20.5410     4.9780     2.0710 cd         1 S9A       0.182000
     20 C2         -19.3550     6.1330    -1.8090 cp         1 S9A       0.228500
     21 C23        -17.2340     5.1920    -1.3120 ca         1 S9A       0.150900
     22 C3         -20.3260     6.8240    -2.6830 cp         1 S9A      -0.157500
     23 C9         -22.2980     8.9080    -7.4740 c          1 S9A       0.648100
     24 N2         -21.6070     9.6740    -8.3530 nj         1 S9A      -0.433800
     25 N5         -22.5960     5.5160     2.6290 na         1 S9A       0.117800
     26 N6         -22.1080     4.8730     3.6990 nc         1 S9A      -0.509800
     27 N7         -17.6330     4.8390    -0.0960 nb         1 S9A      -0.242000
     28 O1         -21.7750    11.4540   -10.9850 os         1 S9A      -0.454000
     29 O2         -22.5460     7.7160    -7.7020 o          1 S9A      -0.632100
     30 H1         -22.3270    10.4600    -6.1420 hn         1 S9A       0.303500
     31 H2         -22.0320     6.1040    -1.6090 ha         1 S9A       0.127000
     32 H3         -24.6510     6.7480    -3.7840 hc         1 S9A       0.043033
     33 H4         -24.2560     6.5310    -2.0740 hc         1 S9A       0.043033
     34 H5         -24.5790     8.1440    -2.7210 hc         1 S9A       0.043033
     35 H6         -23.8250     9.4940    -4.6060 h1         1 S9A       0.068700
     36 H7         -23.9310     8.0590    -5.5990 h1         1 S9A       0.068700
     37 H8         -22.2320     9.0680   -10.3150 h1         1 S9A       0.064200
     38 H9         -20.5310     8.6710    -9.9340 h1         1 S9A       0.064200
     39 H10        -19.3830    12.5840   -11.5950 hc         1 S9A       0.045033
     40 H11        -20.4100    12.5710   -13.0410 hc         1 S9A       0.045033
     41 H12        -20.0540    14.0960   -12.2100 hc         1 S9A       0.045033
     42 H13        -20.7650    11.5970    -7.8320 h1         1 S9A       0.064200
     43 H14        -22.4430    11.6530    -8.4560 h1         1 S9A       0.064200
     44 H15        -18.8570     7.7350    -3.9740 ha         1 S9A       0.115000
     45 H17        -24.4240     5.7410     3.5560 h1         1 S9A       0.056700
     46 H18        -23.9520     7.1130     2.5300 h1         1 S9A       0.056700
     47 H19        -24.5120     5.5990     1.7870 h1         1 S9A       0.056700
     48 H20        -20.2300     4.0050     4.0700 h4         1 S9A       0.039100
     49 H21        -17.6920     6.0900    -3.2080 ha         1 S9A       0.135000
     50 H22        -19.9450    11.0670   -10.1030 h1         1 S9A       0.056700
     51 H23        -21.3490    13.3290   -10.2300 h1         1 S9A       0.030700
     52 H24        -22.6070    14.5110   -12.0300 hc         1 S9A       0.045033
     53 H25        -22.9370    12.9570   -12.8130 hc         1 S9A       0.045033
     54 H26        -23.6160    13.3060   -11.2120 hc         1 S9A       0.045033
     55 H27        -20.5000     8.8450    -5.3950 ha         1 S9A       0.114000
     56 H28        -16.2120     4.9400    -1.5770 h4         1 S9A       0.022100
     57 N4         -19.3080     4.7790     1.4600 nu         1 S9A      -0.899900
     58 C13        -20.2600    13.0340   -12.0630 c3         1 S9A      -0.104100
     59 H16        -21.9160     6.0960     0.6920 h4         1 S9A       0.177000
     60 C21        -23.9530     6.0270     2.6200 c3         1 S9A       0.076900
     61 H29        -18.6010     4.3140     2.0080 hn         1 S9A       0.517000
@<TRIPOS>BOND
     1     1     7 1   
     2     1    23 1   
     3     1    30 1   
     4     2    18 ar  
     5     2    20 ar  
     6     3     4 ar  
     7     3    22 ar  
     8     3    31 1   
     9     4     5 1   
    10     4     6 ar  
    11     5    32 1   
    12     5    33 1   
    13     5    34 1   
    14     6     7 1   
    15     6    17 ar  
    16     7    35 1   
    17     7    36 1   
    18     8    14 1   
    19     8    24 1   
    20     8    37 1   
    21     8    38 1   
    22     9    14 1   
    23     9    24 1   
    24     9    42 1   
    25     9    43 1   
    26    10    17 ar  
    27    10    22 ar  
    28    10    44 1   
    29    11    19 2   
    30    11    25 1   
    31    11    59 1   
    32    12    19 1   
    33    12    26 2   
    34    12    48 1   
    35    13    20 ar  
    36    13    21 ar  
    37    13    49 1   
    38    14    28 1   
    39    14    50 1   
    40    15    16 1   
    41    15    28 1   
    42    15    51 1   
    43    15    58 1   
    44    16    52 1   
    45    16    53 1   
    46    16    54 1   
    47    17    55 1   
    48    18    27 ar  
    49    18    57 1   
    50    19    57 1   
    51    20    22 1   
    52    21    27 ar  
    53    21    56 1   
    54    23    24 1   
    55    23    29 2   
    56    25    26 1   
    57    25    60 1   
    58    39    58 1   
    59    40    58 1   
    60    41    58 1   
    61    45    60 1   
    62    46    60 1   
    63    47    60 1   
    64    57    61 1   
@<TRIPOS>SUBSTRUCTURE
     1 S9A         1 TEMP              0 ****  ****    0 ROOT
