@<TRIPOS>MOLECULE
S9B
   19    20     1     0     0
SMALL
No Charge or Current Charge


@<TRIPOS>ATOM
      1 C2         -15.9550    26.0360   -25.4510 ca         1 S9B      -0.109000
      2 C4         -17.2630    24.7300   -23.4140 ca         1 S9B       0.258900
      3 C6         -15.8310    24.6300   -25.3780 ca         1 S9B       0.009000
      4 N          -17.3900    26.0740   -23.4880 nb         1 S9B      -0.687000
      5 C          -14.5080    26.0780   -27.4050 ca         1 S9B      -0.114000
      6 O          -13.7470    21.9820   -26.2990 o          1 S9B      -0.714500
      7 C1         -15.2970    26.7560   -26.4650 ca         1 S9B      -0.131000
      8 C3         -16.7430    26.7080   -24.4930 ca         1 S9B       0.325900
      9 C5         -16.5020    23.9750   -24.3220 ca         1 S9B      -0.092000
     10 C7         -15.0420    23.9390   -26.3360 ca         1 S9B      -0.115600
     11 C8         -14.3800    24.6820   -27.3400 ca         1 S9B      -0.107000
     12 C9         -14.8820    22.4380   -26.3210 c          1 S9B       0.717600
     13 O1         -15.8860    21.7440   -26.3980 o          1 S9B      -0.714500
     14 H1         -17.7880    24.2420   -22.5940 h4         1 S9B      -0.002900
     15 H2         -13.9960    26.6350   -28.1870 ha         1 S9B       0.090000
     16 H3         -15.3930    27.8390   -26.5210 ha         1 S9B       0.090000
     17 H4         -16.8580    27.7910   -24.5270 h4         1 S9B      -0.008900
     18 H5         -16.4460    22.9010   -24.1850 ha         1 S9B       0.171000
     19 H6         -13.7680    24.1660   -28.0770 ha         1 S9B       0.134000
@<TRIPOS>BOND
     1     1     3 ar  
     2     1     7 ar  
     3     1     8 ar  
     4     2     4 ar  
     5     2     9 ar  
     6     2    14 1   
     7     3     9 ar  
     8     3    10 ar  
     9     4     8 ar  
    10     5     7 ar  
    11     5    11 ar  
    12     5    15 1   
    13     6    12 1   
    14     7    16 1   
    15     8    17 1   
    16     9    18 1   
    17    10    11 ar  
    18    10    12 1   
    19    11    19 1   
    20    12    13 1   
@<TRIPOS>SUBSTRUCTURE
     1 S9B         1 TEMP              0 ****  ****    0 ROOT
