@<TRIPOS>MOLECULE
S9B
   19    20     1     0     0
SMALL
bcc


@<TRIPOS>ATOM
      1 C2         -15.9560    26.0210   -25.4480 ca         1 S9B      -0.174300
      2 C4         -17.3190    24.7640   -23.4660 ca         1 S9B       0.324200
      3 C6         -15.8450    24.6060   -25.3700 ca         1 S9B       0.009000
      4 N          -17.4300    26.1090   -23.5480 nb         1 S9B      -0.687000
      5 C          -14.4820    26.0830   -27.3370 ca         1 S9B      -0.132000
      6 O          -13.9510    21.9960   -27.1640 o          1 S9B      -0.819800
      7 C1         -15.2710    26.7480   -26.4440 ca         1 S9B      -0.149000
      8 C3         -16.7670    26.6960   -24.5050 ca         1 S9B       0.391200
      9 C5         -16.5710    23.9970   -24.3140 ca         1 S9B      -0.175300
     10 C7         -15.0210    23.9240   -26.3190 ca         1 S9B      -0.115600
     11 C8         -14.3660    24.6830   -27.2610 ca         1 S9B      -0.125000
     12 C9         -14.8250    22.4000   -26.3770 c          1 S9B       0.928200
     13 O1         -15.5530    21.6920   -25.6550 o          1 S9B      -0.819800
     14 H1         -17.8740    24.2940   -22.6610 h4         1 S9B      -0.002900
     15 H2         -13.9470    26.6230   -28.1070 ha         1 S9B       0.108000
     16 H3         -15.3780    27.8260   -26.4830 ha         1 S9B       0.108000
     17 H4         -16.8490    27.7780   -24.5750 h4         1 S9B      -0.008900
     18 H5         -16.5360    22.9290   -24.1860 ha         1 S9B       0.189000
     19 H6         -13.7350    24.1770   -27.9790 ha         1 S9B       0.152000
@<TRIPOS>BOND
     1     1     3 ar  
     2     1     7 ar  
     3     1     8 ar  
     4     2     4 ar  
     5     2     9 ar  
     6     2    14 1   
     7     3     9 ar  
     8     3    10 ar  
     9     4     8 ar  
    10     5     7 ar  
    11     5    11 ar  
    12     5    15 1   
    13     6    12 1   
    14     7    16 1   
    15     8    17 1   
    16     9    18 1   
    17    10    11 ar  
    18    10    12 1   
    19    11    19 1   
    20    12    13 1   
@<TRIPOS>SUBSTRUCTURE
     1 S9B         1 TEMP              0 ****  ****    0 ROOT
