@<TRIPOS>MOLECULE
S9C
   30    33     1     0     0
SMALL
No Charge or Current Charge


@<TRIPOS>ATOM
      1 C1         101.8950   104.5660   134.9870 cp         1 S9C      -0.064000
      2 C2         100.9700   103.6240   135.4250 ca         1 S9C      -0.005200
      3 C3         101.2950   105.3070   133.8850 cp         1 S9C      -0.148000
      4 C4         100.0220   104.8040   133.6690 ca         1 S9C       0.031800
      5 C5         101.2230   102.7390   136.4760 ca         1 S9C      -0.126000
      6 C6         102.4880   102.8060   137.1270 cp         1 S9C      -0.005000
      7 C15        104.3810   100.5520   139.5600 ca         1 S9C      -0.191000
      8 C10         99.1970   105.3170   132.6700 ca         1 S9C      -0.197000
      9 C11        102.8150   101.8820   138.2600 cp         1 S9C      -0.101000
     10 C12         99.7300   106.3710   131.8970 ca         1 S9C       0.359900
     11 C13        104.1360   101.4170   138.4810 ca         1 S9C      -0.043000
     12 C14        101.8130   101.4310   139.1620 ca         1 S9C       0.373900
     13 C16        103.3110   100.1780   140.3820 ca         1 S9C       0.564200
     14 C7         103.1510   104.6590   135.6090 ca         1 S9C      -0.052000
     15 C8         103.4360   103.7770   136.6750 ca         1 S9C      -0.129000
     16 C9         101.7580   106.3600   133.0710 ca         1 S9C       0.395900
     17 F1         103.5040    99.3480   141.4290 f          1 S9C      -0.229200
     18 N1          99.8360   103.7820   134.6100 na         1 S9C      -0.236600
     19 N2         100.9800   106.8870   132.0840 nb         1 S9C      -0.691000
     20 N3         102.0440   100.5990   140.2040 nb         1 S9C      -0.695000
     21 H1         100.4710   102.0120   136.7710 ha         1 S9C       0.121000
     22 H3          98.1970   104.9330   132.4910 ha         1 S9C       0.127000
     23 H4          99.1400   106.8190   131.0990 h4         1 S9C       0.019100
     24 H5         104.9510   101.7080   137.8230 ha         1 S9C       0.128000
     25 H6         100.7820   101.7640   139.0490 h4         1 S9C       0.029100
     26 H7         103.8830   105.3930   135.2810 ha         1 S9C       0.122000
     27 H8         104.4020   103.8580   137.1660 ha         1 S9C       0.117000
     28 H9         102.7520   106.7850   133.2050 h4         1 S9C       0.022100
     29 H10         98.9910   103.2280   134.6920 hn         1 S9C       0.358000
     30 H2         105.3780   100.1720   139.7590 ha         1 S9C       0.144000
@<TRIPOS>BOND
     1     1     2 ar  
     2     1     3 1   
     3     1    14 ar  
     4     2     5 ar  
     5     2    18 1   
     6     3     4 ar  
     7     3    16 ar  
     8     4     8 ar  
     9     4    18 1   
    10     5     6 ar  
    11     5    21 1   
    12     6     9 1   
    13     6    15 ar  
    14     7    11 ar  
    15     7    13 ar  
    16     7    30 1   
    17     8    10 ar  
    18     8    22 1   
    19     9    11 ar  
    20     9    12 ar  
    21    10    19 ar  
    22    10    23 1   
    23    11    24 1   
    24    12    20 ar  
    25    12    25 1   
    26    13    17 1   
    27    13    20 ar  
    28    14    15 ar  
    29    14    26 1   
    30    15    27 1   
    31    16    19 ar  
    32    16    28 1   
    33    18    29 1   
@<TRIPOS>SUBSTRUCTURE
     1 S9C         1 TEMP              0 ****  ****    0 ROOT
