@<TRIPOS>MOLECULE
S9C
   30    33     1     0     0
SMALL
abcg2


@<TRIPOS>ATOM
      1 C1         101.9560   104.5830   134.9930 cp         1 S9C      -0.064000
      2 C2         101.0100   103.6070   135.3940 ca         1 S9C      -0.005200
      3 C3         101.3430   105.3220   133.9120 cp         1 S9C      -0.148000
      4 C4         100.0590   104.7550   133.7080 ca         1 S9C       0.031800
      5 C5         101.2640   102.7140   136.4260 ca         1 S9C      -0.126000
      6 C6         102.4950   102.7930   137.0810 cp         1 S9C      -0.005000
      7 C15        104.3320   100.5530   139.5100 ca         1 S9C      -0.191000
      8 C10         99.2210   105.2660   132.7210 ca         1 S9C      -0.197000
      9 C11        102.7980   101.8880   138.2080 cp         1 S9C      -0.101000
     10 C12         99.7160   106.3320   131.9850 ca         1 S9C       0.359900
     11 C13        104.0840   101.3760   138.4250 ca         1 S9C      -0.043000
     12 C14        101.8120   101.5230   139.1260 ca         1 S9C       0.373900
     13 C16        103.2550   100.2800   140.3390 ca         1 S9C       0.564200
     14 C7         103.1840   104.6460   135.6500 ca         1 S9C      -0.052000
     15 C8         103.4440   103.7560   136.6790 ca         1 S9C      -0.129000
     16 C9         101.7260   106.3880   133.1060 ca         1 S9C       0.395900
     17 F1         103.4520    99.4890   141.4170 f          1 S9C      -0.229200
     18 N1          99.8810   103.7300   134.5990 na         1 S9C      -0.236600
     19 N2         100.9310   106.8890   132.1580 nb         1 S9C      -0.691000
     20 N3         102.0380   100.7280   140.1790 nb         1 S9C      -0.695000
     21 H1         100.5320   101.9660   136.7010 ha         1 S9C       0.121000
     22 H3          98.2360   104.8640   132.5310 ha         1 S9C       0.127000
     23 H4          99.1020   106.7700   131.2070 h4         1 S9C       0.019100
     24 H5         104.8870   101.6110   137.7390 ha         1 S9C       0.128000
     25 H6         100.8020   101.9010   139.0240 h4         1 S9C       0.029100
     26 H7         103.9240   105.3850   135.3680 ha         1 S9C       0.122000
     27 H8         104.3860   103.8180   137.2060 ha         1 S9C       0.117000
     28 H9         102.6990   106.8530   133.2260 h4         1 S9C       0.022100
     29 H10         99.0540   103.1590   134.6730 hn         1 S9C       0.358000
     30 H2         105.3080   100.1340   139.7080 ha         1 S9C       0.144000
@<TRIPOS>BOND
     1     1     2 ar  
     2     1     3 1   
     3     1    14 ar  
     4     2     5 ar  
     5     2    18 1   
     6     3     4 ar  
     7     3    16 ar  
     8     4     8 ar  
     9     4    18 1   
    10     5     6 ar  
    11     5    21 1   
    12     6     9 1   
    13     6    15 ar  
    14     7    11 ar  
    15     7    13 ar  
    16     7    30 1   
    17     8    10 ar  
    18     8    22 1   
    19     9    11 ar  
    20     9    12 ar  
    21    10    19 ar  
    22    10    23 1   
    23    11    24 1   
    24    12    20 ar  
    25    12    25 1   
    26    13    17 1   
    27    13    20 ar  
    28    14    15 ar  
    29    14    26 1   
    30    15    27 1   
    31    16    19 ar  
    32    16    28 1   
    33    18    29 1   
@<TRIPOS>SUBSTRUCTURE
     1 S9C         1 TEMP              0 ****  ****    0 ROOT
