@<TRIPOS>MOLECULE
S9D
   32    34     1     0     0
SMALL
No Charge or Current Charge


@<TRIPOS>ATOM
      1 C10        -27.3550    99.8160   133.9460 c5         1 S9D       0.182800
      2 C15        -26.7950   100.9320   136.1960 ca         1 S9D      -0.094500
      3 C01        -30.1280    98.5010   142.1340 ca         1 S9D      -0.260000
      4 C02        -30.4160    99.0680   140.8840 ca         1 S9D       0.142900
      5 C04        -28.1570    99.3440   140.4910 ca         1 S9D       0.349300
      6 C06        -27.2070    99.7920   138.3070 ca         1 S9D       0.114100
      7 C07        -27.6910    98.6730   137.6040 ca         1 S9D      -0.104000
      8 C08        -27.7370    98.6920   136.1990 ca         1 S9D      -0.094500
      9 C09        -27.2920    99.8190   135.4780 ca         1 S9D      -0.083300
     10 C11        -25.8970    99.9020   133.3890 c5         1 S9D      -0.108400
     11 C12        -26.0420   100.9520   132.2510 c5         1 S9D       0.103800
     12 C16        -26.7490   100.9140   137.6010 ca         1 S9D      -0.104000
     13 C18        -28.7780    98.3950   142.4990 ca         1 S9D       0.142900
     14 N03        -29.4350    99.4930   140.0650 nb         1 S9D      -0.207500
     15 N13        -27.5010   100.9990   132.0190 n7         1 S9D      -0.628200
     16 N14        -28.0280   101.0030   133.3690 n7         1 S9D      -0.577200
     17 N17        -27.7940    98.8180   141.6820 nb         1 S9D      -0.207500
     18 H1         -27.8410    98.9000   133.5780 h1         1 S9D       0.095700
     19 H2         -26.4380   101.8120   135.6660 ha         1 S9D       0.123500
     20 H4         -31.4400    99.1870   140.5340 h4         1 S9D       0.028100
     21 H5         -28.0270    97.7910   138.1420 ha         1 S9D       0.128000
     22 H6         -28.1180    97.8220   135.6680 ha         1 S9D       0.123500
     23 H7         -25.5710    98.9300   133.0040 hc         1 S9D       0.055200
     24 H8         -25.1540   100.2210   134.1280 hc         1 S9D       0.055200
     25 H9         -25.4890   100.6720   131.3440 h1         1 S9D       0.045200
     26 H10        -25.6750   101.9340   132.5830 h1         1 S9D       0.045200
     27 H11        -26.3610   101.7720   138.1440 ha         1 S9D       0.128000
     28 H12        -28.4780    97.9690   143.4560 h4         1 S9D       0.028100
     29 H13        -27.7780   101.8240   131.4540 hn         1 S9D       0.419000
     30 H14        -27.7200   101.8350   133.8950 hn         1 S9D       0.369000
     31 O05        -27.1340    99.7910   139.6830 os         1 S9D      -0.346400
     32 H3         -30.9200    98.1590   142.7950 ha         1 S9D       0.139000
@<TRIPOS>BOND
     1     1     9 1   
     2     1    10 1   
     3     1    16 1   
     4     1    18 1   
     5     2     9 ar  
     6     2    12 ar  
     7     2    19 1   
     8     3     4 ar  
     9     3    13 ar  
    10     3    32 1   
    11     4    14 ar  
    12     4    20 1   
    13     5    14 ar  
    14     5    17 ar  
    15     5    31 1   
    16     6     7 ar  
    17     6    12 ar  
    18     6    31 1   
    19     7     8 ar  
    20     7    21 1   
    21     8     9 ar  
    22     8    22 1   
    23    10    11 1   
    24    10    23 1   
    25    10    24 1   
    26    11    15 1   
    27    11    25 1   
    28    11    26 1   
    29    12    27 1   
    30    13    17 ar  
    31    13    28 1   
    32    15    16 1   
    33    15    29 1   
    34    16    30 1   
@<TRIPOS>SUBSTRUCTURE
     1 S9D         1 TEMP              0 ****  ****    0 ROOT
