@<TRIPOS>MOLECULE
S9D
   32    34     1     0     0
SMALL
bcc


@<TRIPOS>ATOM
      1 C10        -27.5030   100.2870   134.0890 c5         1 S9D       0.182800
      2 C15        -27.6620   101.2000   136.4340 ca         1 S9D      -0.112500
      3 C01        -30.0500    98.4600   142.0260 ca         1 S9D      -0.408600
      4 C02        -30.2110    98.5880   140.6580 ca         1 S9D       0.471200
      5 C04        -28.0890    99.2870   140.4560 ca         1 S9D       0.875300
      6 C06        -27.2140    99.8360   138.3470 ca         1 S9D       0.114100
      7 C07        -26.9370    98.7580   137.5250 ca         1 S9D      -0.122000
      8 C08        -27.0180    98.9150   136.1490 ca         1 S9D      -0.112500
      9 C09        -27.3760   100.1350   135.5810 ca         1 S9D      -0.083300
     10 C11        -26.5580    99.4100   133.2290 c5         1 S9D      -0.108400
     11 C12        -26.1610   100.3550   132.0860 c5         1 S9D       0.103800
     12 C16        -27.5780   101.0580   137.8120 ca         1 S9D      -0.122000
     13 C18        -28.8000    98.7900   142.5240 ca         1 S9D       0.471200
     14 N03        -29.2310    99.0040   139.8630 nb         1 S9D      -0.733500
     15 N13        -27.0950   101.4720   132.2490 n7         1 S9D      -0.573000
     16 N14        -27.2510   101.6560   133.6490 n7         1 S9D      -0.522000
     17 N17        -27.8110    99.2060   141.7450 nb         1 S9D      -0.733500
     18 H1         -28.5350   100.0490   133.8090 h1         1 S9D       0.095700
     19 H2         -27.9560   102.1570   136.0250 ha         1 S9D       0.141500
     20 H4         -31.1540    98.3520   140.1800 h4         1 S9D       0.028100
     21 H5         -26.6490    97.8050   137.9500 ha         1 S9D       0.146000
     22 H6         -26.7970    98.0630   135.5190 ha         1 S9D       0.141500
     23 H7         -27.0620    98.5110   132.8730 hc         1 S9D       0.055200
     24 H8         -25.6800    99.0910   133.7910 hc         1 S9D       0.055200
     25 H9         -26.2730    99.9050   131.0990 h1         1 S9D       0.045200
     26 H10        -25.1140   100.6640   132.1960 h1         1 S9D       0.045200
     27 H11        -27.7910   101.8980   138.4610 ha         1 S9D       0.146000
     28 H12        -28.5840    98.7190   143.5830 h4         1 S9D       0.028100
     29 H13        -26.7440   102.3320   131.8460 hn         1 S9D       0.363800
     30 H14        -26.3540   101.9340   134.0550 hn         1 S9D       0.313800
     31 O05        -27.0570    99.7120   139.7130 os         1 S9D      -0.346400
     32 H3         -30.8510    98.1230   142.6660 ha         1 S9D       0.157000
@<TRIPOS>BOND
     1     1     9 1   
     2     1    10 1   
     3     1    16 1   
     4     1    18 1   
     5     2     9 ar  
     6     2    12 ar  
     7     2    19 1   
     8     3     4 ar  
     9     3    13 ar  
    10     3    32 1   
    11     4    14 ar  
    12     4    20 1   
    13     5    14 ar  
    14     5    17 ar  
    15     5    31 1   
    16     6     7 ar  
    17     6    12 ar  
    18     6    31 1   
    19     7     8 ar  
    20     7    21 1   
    21     8     9 ar  
    22     8    22 1   
    23    10    11 1   
    24    10    23 1   
    25    10    24 1   
    26    11    15 1   
    27    11    25 1   
    28    11    26 1   
    29    12    27 1   
    30    13    17 ar  
    31    13    28 1   
    32    15    16 1   
    33    15    29 1   
    34    16    30 1   
@<TRIPOS>SUBSTRUCTURE
     1 S9D         1 TEMP              0 ****  ****    0 ROOT
