@<TRIPOS>MOLECULE
S9E
   20    21     1     0     0
SMALL
abcg2


@<TRIPOS>ATOM
      1 C10         18.7890    21.3880     3.0700 ca         1 S9E      -0.256600
      2 C13         19.6640    21.3820     4.2540 c          1 S9E       0.587500
      3 C02         16.3790    21.9260    -1.4420 cc         1 S9E       0.462700
      4 C04         14.3530    21.2510    -1.2980 cd         1 S9E       0.226900
      5 C05         14.8940    21.0500    -0.0660 cc         1 S9E      -0.164000
      6 C07         17.1350    21.4370     0.9230 ca         1 S9E       0.466500
      7 C09         17.4560    21.7990     3.1490 ca         1 S9E       0.414900
      8 C11         19.2740    20.9640     1.8340 ca         1 S9E      -0.020000
      9 C12         18.4330    20.9740     0.7360 ca         1 S9E      -0.163000
     10 N03         15.2910    21.8100    -2.1480 nd         1 S9E      -0.625000
     11 N06         16.2140    21.4750    -0.1530 na         1 S9E      -0.197000
     12 N08         16.6450    21.8310     2.0990 nb         1 S9E      -0.682000
     13 H1          20.6900    21.0170     4.0690 h4         1 S9E      -0.001800
     14 H4          13.3540    21.0280    -1.6330 h4         1 S9E       0.048100
     15 H5          14.5040    20.6370     0.8470 h4         1 S9E       0.174000
     16 H6          17.0410    22.1170     4.0980 h4         1 S9E       0.049100
     17 H7          20.2950    20.6140     1.7410 ha         1 S9E       0.131000
     18 H8          18.7620    20.6160    -0.2270 ha         1 S9E       0.149000
     19 O1          19.3230    21.7430     5.3620 o          1 S9E      -0.505100
     20 BR1         17.9480    22.7410    -2.0730 br         1 S9E      -0.094200
@<TRIPOS>BOND
     1     1     2 1   
     2     1     7 ar  
     3     1     8 ar  
     4     2    13 1   
     5     2    19 2   
     6     3    10 2   
     7     3    11 1   
     8     3    20 1   
     9     4     5 2   
    10     4    10 1   
    11     4    14 1   
    12     5    11 1   
    13     5    15 1   
    14     6     9 ar  
    15     6    11 1   
    16     6    12 ar  
    17     7    12 ar  
    18     7    16 1   
    19     8     9 ar  
    20     8    17 1   
    21     9    18 1   
@<TRIPOS>SUBSTRUCTURE
     1 S9E         1 TEMP              0 ****  ****    0 ROOT
