@<TRIPOS>MOLECULE
S9E
   20    21     1     0     0
SMALL
No Charge or Current Charge


@<TRIPOS>ATOM
      1 C10         18.8230    21.4000     3.0500 ca         1 S9E      -0.256600
      2 C13         19.7520    21.4070     4.2190 c          1 S9E       0.587500
      3 C02         16.3540    22.1640    -1.2870 cc         1 S9E       0.462700
      4 C04         14.4340    21.1650    -1.4080 cd         1 S9E       0.226900
      5 C05         14.9320    20.8230    -0.1730 cc         1 S9E      -0.164000
      6 C07         17.0150    21.4550     0.9500 ca         1 S9E       0.466500
      7 C09         17.5690    22.0180     3.1450 ca         1 S9E       0.414900
      8 C11         19.1800    20.7790     1.8430 ca         1 S9E      -0.020000
      9 C12         18.2570    20.8100     0.7870 ca         1 S9E      -0.163000
     10 N03         15.3150    21.9950    -2.0920 nd         1 S9E      -0.625000
     11 N06         16.1560    21.4460    -0.1390 na         1 S9E      -0.197000
     12 N08         16.6850    22.0450     2.1210 nb         1 S9E      -0.682000
     13 H1          20.7280    20.8960     4.0680 h4         1 S9E      -0.001800
     14 H4          13.4850    20.8690    -1.8390 h4         1 S9E       0.048100
     15 H5          14.5280    20.2170     0.6290 h4         1 S9E       0.174000
     16 H6          17.2500    22.5110     4.0640 h4         1 S9E       0.049100
     17 H7          20.1420    20.2830     1.7230 ha         1 S9E       0.131000
     18 H8          18.5020    20.3330    -0.1580 ha         1 S9E       0.149000
     19 O1          19.4790    21.9380     5.2900 o          1 S9E      -0.505100
     20 Br1         17.8600    23.2460    -1.6530 br         1 S9E      -0.094200
@<TRIPOS>BOND
     1     1     2 1   
     2     1     7 ar  
     3     1     8 ar  
     4     2    13 1   
     5     2    19 2   
     6     3    10 2   
     7     3    11 1   
     8     3    20 1   
     9     4     5 2   
    10     4    10 1   
    11     4    14 1   
    12     5    11 1   
    13     5    15 1   
    14     6     9 ar  
    15     6    11 1   
    16     6    12 ar  
    17     7    12 ar  
    18     7    16 1   
    19     8     9 ar  
    20     8    17 1   
    21     9    18 1   
@<TRIPOS>SUBSTRUCTURE
     1 S9E         1 TEMP              0 ****  ****    0 ROOT
