@<TRIPOS>MOLECULE
S9G
   38    40     1     0     0
SMALL
bcc


@<TRIPOS>ATOM
      1 C10        -11.6590    86.9020   103.6180 c          1 S9G       0.649100
      2 C13        -14.1440    86.6010   103.9300 c5         1 S9G      -0.109400
      3 C15        -13.5850    84.4270   103.1300 c5         1 S9G       0.133400
      4 C17        -10.1660    88.4600   104.7610 c6         1 S9G       0.074500
      5 C03        -11.7450    92.7030   105.9100 cx         1 S9G      -0.242700
      6 C04        -11.5100    93.9370   106.7410 cx         1 S9G      -0.098400
      7 C05        -11.0660    93.9180   105.3250 cx         1 S9G      -0.098400
      8 C07        -12.5600    89.9840   105.1100 c6         1 S9G       0.077500
      9 C08        -12.1950    89.3370   103.7780 c6         1 S9G       0.074500
     10 C12        -12.9990    86.6650   102.9120 c5         1 S9G       0.072100
     11 C14        -14.0560    85.1490   104.3910 c5         1 S9G      -0.113400
     12 C18        -10.5430    89.1030   106.0890 c6         1 S9G       0.077500
     13 N06        -11.3610    90.2840   105.8680 n          1 S9G      -0.476800
     14 N09        -11.3640    88.1670   103.9930 n          1 S9G      -0.485800
     15 O01         -9.7800    91.6640   106.6880 o          1 S9G      -0.607100
     16 O11        -10.9170    85.9590   103.8470 o          1 S9G      -0.582100
     17 O16        -12.9920    85.4110   102.2870 os         1 S9G      -0.386600
     18 H1         -14.0480    87.3130   104.7490 hc         1 S9G       0.056200
     19 H2         -15.0930    86.7990   103.4290 hc         1 S9G       0.056200
     20 H3         -14.4230    83.9720   102.5960 h1         1 S9G       0.051200
     21 H4         -12.8610    83.6390   103.3510 h1         1 S9G       0.051200
     22 H5          -9.6080    87.5450   104.9350 h1         1 S9G       0.063200
     23 H6          -9.5300    89.1430   104.1890 h1         1 S9G       0.063200
     24 H7         -12.7680    92.5520   105.6010 hc         1 S9G       0.083700
     25 H8         -12.3870    94.5170   106.9980 hc         1 S9G       0.081700
     26 H9         -10.7560    93.8850   107.5130 hc         1 S9G       0.081700
     27 H10        -10.0060    93.8450   105.1240 hc         1 S9G       0.081700
     28 H11        -11.6290    94.4850   104.5950 hc         1 S9G       0.081700
     29 H12        -13.1480    90.8740   104.9160 h1         1 S9G       0.063450
     30 H13        -13.1850    89.2980   105.6920 h1         1 S9G       0.063450
     31 H14        -11.6450    90.0580   103.1650 h1         1 S9G       0.063200
     32 H15        -13.1060    89.0870   103.2430 h1         1 S9G       0.063200
     33 H16        -13.1690    87.4190   102.1400 h1         1 S9G       0.079700
     34 H17        -15.0090    84.7650   104.7500 hc         1 S9G       0.060200
     35 H18        -13.3310    85.0450   105.1980 hc         1 S9G       0.060200
     36 H19        -11.1140    88.3880   106.6900 h1         1 S9G       0.063450
     37 H20         -9.6490    89.3720   106.6430 h1         1 S9G       0.063450
     38 C02        -10.8870    91.5150   106.1820 c          1 S9G       0.708100
@<TRIPOS>BOND
     1     1    10 1   
     2     1    14 1   
     3     1    16 2   
     4     2    10 1   
     5     2    11 1   
     6     2    18 1   
     7     2    19 1   
     8     3    11 1   
     9     3    17 1   
    10     3    20 1   
    11     3    21 1   
    12     4    12 1   
    13     4    14 1   
    14     4    22 1   
    15     4    23 1   
    16     5     6 1   
    17     5     7 1   
    18     5    24 1   
    19     5    38 1   
    20     6     7 1   
    21     6    25 1   
    22     6    26 1   
    23     7    27 1   
    24     7    28 1   
    25     8     9 1   
    26     8    13 1   
    27     8    29 1   
    28     8    30 1   
    29     9    14 1   
    30     9    31 1   
    31     9    32 1   
    32    10    17 1   
    33    10    33 1   
    34    11    34 1   
    35    11    35 1   
    36    12    13 1   
    37    12    36 1   
    38    12    37 1   
    39    13    38 1   
    40    15    38 2   
@<TRIPOS>SUBSTRUCTURE
     1 S9G         1 TEMP              0 ****  ****    0 ROOT
