@<TRIPOS>MOLECULE
S9G
   38    40     1     0     0
SMALL
No Charge or Current Charge


@<TRIPOS>ATOM
      1 C10        -11.6620    86.8200   103.3660 c          1 S9G       0.582100
      2 C13        -14.2140    86.5730   103.8370 c5         1 S9G      -0.109400
      3 C15        -13.5320    84.3570   103.0800 c5         1 S9G       0.156600
      4 C17        -10.2890    88.1790   104.9500 c6         1 S9G       0.074500
      5 C03        -11.8370    92.7670   106.3950 cx         1 S9G      -0.242700
      6 C04        -11.3090    94.1670   106.6490 cx         1 S9G      -0.098400
      7 C05        -11.5160    93.6870   105.2330 cx         1 S9G      -0.098400
      8 C07        -12.2800    90.3240   104.8970 c6         1 S9G       0.077500
      9 C08        -12.1390    89.2840   103.7590 c6         1 S9G       0.074500
     10 C12        -13.1070    86.6460   102.7460 c5         1 S9G       0.095300
     11 C14        -14.0230    85.1190   104.3490 c5         1 S9G      -0.113400
     12 C18        -10.4100    89.1820   106.1200 c6         1 S9G       0.077500
     13 N06        -11.0930    90.4630   105.7920 n          1 S9G      -0.409800
     14 N09        -11.5440    87.9820   104.1790 n          1 S9G      -0.418800
     15 O01        -10.1070    91.5830   107.5570 o          1 S9G      -0.607100
     16 O11        -10.7400    86.0150   103.2620 o          1 S9G      -0.582100
     17 O16        -13.2740    85.3700   102.0780 os         1 S9G      -0.433000
     18 H1         -14.1120    87.3180   104.6330 hc         1 S9G       0.056200
     19 H2         -15.2060    86.7100   103.3900 hc         1 S9G       0.056200
     20 H3         -14.2890    83.6600   102.6950 h1         1 S9G       0.051200
     21 H4         -12.6100    83.7940   103.2780 h1         1 S9G       0.051200
     22 H5          -9.9430    87.2180   105.3550 h1         1 S9G       0.063200
     23 H6          -9.5110    88.5370   104.2600 h1         1 S9G       0.063200
     24 H7         -12.8860    92.6000   106.6230 hc         1 S9G       0.083700
     25 H8         -12.0030    94.9080   107.0380 hc         1 S9G       0.081700
     26 H9         -10.2840    94.2800   106.9970 hc         1 S9G       0.081700
     27 H10        -10.6310    93.4700   104.6370 hc         1 S9G       0.081700
     28 H11        -12.3480    94.1070   104.6710 hc         1 S9G       0.081700
     29 H12        -12.5270    91.2870   104.4300 h1         1 S9G       0.063450
     30 H13        -13.1410    90.0400   105.5190 h1         1 S9G       0.063450
     31 H14        -11.4970    89.7140   102.9760 h1         1 S9G       0.063200
     32 H15        -13.1330    89.1480   103.3140 h1         1 S9G       0.063200
     33 H16        -13.2770    87.4540   102.0230 h1         1 S9G       0.079700
     34 H17        -14.9480    84.6950   104.7560 hc         1 S9G       0.060200
     35 H18        -13.2710    85.0710   105.1440 hc         1 S9G       0.060200
     36 H19        -10.9690    88.6980   106.9340 h1         1 S9G       0.063450
     37 H20         -9.4000    89.3860   106.5030 h1         1 S9G       0.063450
     38 C02        -10.9310    91.5760   106.6510 c          1 S9G       0.641100
@<TRIPOS>BOND
     1     1    10 1   
     2     1    14 1   
     3     1    16 2   
     4     2    10 1   
     5     2    11 1   
     6     2    18 1   
     7     2    19 1   
     8     3    11 1   
     9     3    17 1   
    10     3    20 1   
    11     3    21 1   
    12     4    12 1   
    13     4    14 1   
    14     4    22 1   
    15     4    23 1   
    16     5     6 1   
    17     5     7 1   
    18     5    24 1   
    19     5    38 1   
    20     6     7 1   
    21     6    25 1   
    22     6    26 1   
    23     7    27 1   
    24     7    28 1   
    25     8     9 1   
    26     8    13 1   
    27     8    29 1   
    28     8    30 1   
    29     9    14 1   
    30     9    31 1   
    31     9    32 1   
    32    10    17 1   
    33    10    33 1   
    34    11    34 1   
    35    11    35 1   
    36    12    13 1   
    37    12    36 1   
    38    12    37 1   
    39    13    38 1   
    40    15    38 2   
@<TRIPOS>SUBSTRUCTURE
     1 S9G         1 TEMP              0 ****  ****    0 ROOT
