@<TRIPOS>MOLECULE
S9H
   47    50     1     0     0
SMALL
bcc


@<TRIPOS>ATOM
      1 C7          -3.9310   -32.5420     6.8990 ca         1 S9H       0.919900
      2 C9          -5.5560   -30.6850     7.9120 ca         1 S9H      -0.421600
      3 N1          -3.8660   -32.3360     8.2220 nb         1 S9H      -0.770000
      4 C2          -3.3350   -34.3000     2.8010 ca         1 S9H      -0.161000
      5 N2          -8.8760   -28.3240     2.8070 ns         1 S9H      -0.492100
      6 C10         -5.5500   -30.9780     6.5530 cp         1 S9H       0.558800
      7 C4          -2.8580   -33.9940     5.1540 ca         1 S9H       0.142600
      8 N3          -4.7340   -31.9060     6.0570 nb         1 S9H      -0.775000
      9 C6          -1.4670   -35.4290     3.7820 ca         1 S9H      -0.161000
     10 C19         -9.2790   -28.7990     1.5930 c          1 S9H       0.716500
     11 C14         -8.0490   -28.9870     3.7240 ca         1 S9H       0.082600
     12 C13         -8.3920   -28.9940     5.0720 ca         1 S9H      -0.170000
     13 C12         -7.5810   -29.6260     5.9970 ca         1 S9H      -0.082000
     14 C18         -8.8230   -30.1950     1.2450 c3         1 S9H      -0.160400
     15 C17         -7.3310   -30.2980     0.9080 c3         1 S9H      -0.061400
     16 C16         -6.4470   -29.4910     1.8590 c3         1 S9H      -0.032100
     17 C15         -6.8640   -29.5990     3.2960 ca         1 S9H      -0.111300
     18 C20         -6.0850   -30.2560     4.2340 ca         1 S9H      -0.061000
     19 C11         -6.4210   -30.2810     5.5880 cp         1 S9H      -0.174500
     20 C8          -4.6770   -31.4130     8.7010 ca         1 S9H       0.482200
     21 N           -3.0780   -33.4920     6.4380 nu         1 S9H      -0.732300
     22 C3          -3.6380   -33.7260     4.0340 ca         1 S9H      -0.133000
     23 C5          -1.7660   -34.8580     5.0010 ca         1 S9H      -0.133000
     24 C1          -2.2500   -35.1550     2.6600 ca         1 S9H       0.113100
     25 O           -1.8850   -35.7560     1.5070 os         1 S9H      -0.317900
     26 C           -2.6540   -35.5050     0.3500 c3         1 S9H       0.125700
     27 H1          -6.1840   -29.9240     8.3490 ha         1 S9H       0.154000
     28 H2          -3.9750   -34.0570     1.9630 ha         1 S9H       0.140000
     29 H3          -9.3010   -27.4570     3.1050 hn         1 S9H       0.324500
     30 H4          -0.6170   -36.0940     3.6950 ha         1 S9H       0.140000
     31 H5          -9.3070   -28.5150     5.3950 ha         1 S9H       0.140000
     32 H6          -7.8830   -29.6300     7.0360 ha         1 S9H       0.137000
     33 H7          -9.4170   -30.5420     0.4000 hc         1 S9H       0.070200
     34 H8          -9.0500   -30.8550     2.0870 hc         1 S9H       0.070200
     35 H9          -7.0530   -31.3520     0.9400 hc         1 S9H       0.049700
     36 H10         -7.1550   -29.9560    -0.1140 hc         1 S9H       0.049700
     37 H11         -5.4080   -29.8050     1.7470 hc         1 S9H       0.055700
     38 H12         -6.4790   -28.4360     1.5670 hc         1 S9H       0.055700
     39 H13         -5.1650   -30.7280     3.9120 ha         1 S9H       0.154000
     40 H14         -4.6270   -31.2330     9.7690 h4         1 S9H       0.023100
     41 H15         -2.4890   -33.8800     7.1580 hn         1 S9H       0.455800
     42 H16         -4.4890   -33.0700     4.1040 ha         1 S9H       0.147500
     43 H17         -1.1390   -35.0870     5.8540 ha         1 S9H       0.147500
     44 H18         -2.2090   -36.0890    -0.4520 h1         1 S9H       0.039033
     45 H19         -3.6950   -35.8170     0.4740 h1         1 S9H       0.039033
     46 H20         -2.6370   -34.4490     0.0660 h1         1 S9H       0.039033
     47 O1          -9.9920   -28.1270     0.8670 o          1 S9H      -0.620500
@<TRIPOS>BOND
     1     1     3 ar  
     2     1     8 ar  
     3     1    21 1   
     4     2     6 ar  
     5     2    20 ar  
     6     2    27 1   
     7     3    20 ar  
     8     4    22 ar  
     9     4    24 ar  
    10     4    28 1   
    11     5    10 1   
    12     5    11 1   
    13     5    29 1   
    14     6     8 ar  
    15     6    19 1   
    16     7    21 1   
    17     7    22 ar  
    18     7    23 ar  
    19     9    23 ar  
    20     9    24 ar  
    21     9    30 1   
    22    10    14 1   
    23    10    47 2   
    24    11    12 ar  
    25    11    17 ar  
    26    12    13 ar  
    27    12    31 1   
    28    13    19 ar  
    29    13    32 1   
    30    14    15 1   
    31    14    33 1   
    32    14    34 1   
    33    15    16 1   
    34    15    35 1   
    35    15    36 1   
    36    16    17 1   
    37    16    37 1   
    38    16    38 1   
    39    17    18 ar  
    40    18    19 ar  
    41    18    39 1   
    42    20    40 1   
    43    21    41 1   
    44    22    42 1   
    45    23    43 1   
    46    24    25 1   
    47    25    26 1   
    48    26    44 1   
    49    26    45 1   
    50    26    46 1   
@<TRIPOS>SUBSTRUCTURE
     1 S9H         1 TEMP              0 ****  ****    0 ROOT
