@<TRIPOS>MOLECULE
S9H
   47    50     1     0     0
SMALL
No Charge or Current Charge


@<TRIPOS>ATOM
      1 C7          -3.9300   -32.5880     6.9640 ca         1 S9H       0.393900
      2 C9          -5.6210   -30.7910     7.9950 ca         1 S9H      -0.273000
      3 N1          -3.9050   -32.4380     8.2980 nb         1 S9H      -0.244000
      4 C2          -3.4450   -34.6910     2.9340 ca         1 S9H      -0.143000
      5 N2          -8.9920   -28.2550     2.8430 ns         1 S9H      -0.166000
      6 C10         -5.5770   -31.0110     6.5960 cp         1 S9H       0.230500
      7 C4          -2.7510   -34.0320     5.1890 ca         1 S9H       0.281000
      8 N3          -4.7060   -31.9120     6.1000 nb         1 S9H      -0.249000
      9 C6          -1.1490   -35.0480     3.6470 ca         1 S9H      -0.143000
     10 C19         -9.2020   -28.5270     1.5060 c          1 S9H       0.574000
     11 C14         -8.1210   -28.9220     3.7420 ca         1 S9H      -0.010000
     12 C13         -8.4580   -28.9530     5.1030 ca         1 S9H      -0.152000
     13 C12         -7.6420   -29.6260     6.0260 ca         1 S9H      -0.064000
     14 C18         -8.8890   -29.9680     1.0800 c3         1 S9H      -0.160400
     15 C17         -7.3790   -30.1610     0.8130 c3         1 S9H      -0.061400
     16 C16         -6.4630   -29.4470     1.8390 c3         1 S9H      -0.032100
     17 C15         -6.9320   -29.5500     3.2980 ca         1 S9H      -0.111300
     18 C20         -6.1190   -30.2220     4.2330 ca         1 S9H      -0.043000
     19 C11         -6.4530   -30.2810     5.6140 cp         1 S9H      -0.174500
     20 C8          -4.7580   -31.5350     8.8150 ca         1 S9H       0.153900
     21 N           -3.0120   -33.5010     6.4600 nu         1 S9H      -0.925900
     22 C3          -3.7460   -34.1430     4.1960 ca         1 S9H      -0.115000
     23 C5          -1.4550   -34.5010     4.9070 ca         1 S9H      -0.115000
     24 C1          -2.1380   -35.1430     2.6540 ca         1 S9H       0.113100
     25 O           -1.7810   -35.6880     1.4370 os         1 S9H      -0.341100
     26 C           -2.7190   -35.8280     0.3550 c3         1 S9H       0.148900
     27 H1          -6.2880   -30.0590     8.4390 ha         1 S9H       0.136000
     28 H2          -4.2370   -34.7600     2.1940 ha         1 S9H       0.122000
     29 H3          -9.3460   -27.3650     3.1680 hn         1 S9H       0.158000
     30 H4          -0.1420   -35.4000     3.4390 ha         1 S9H       0.122000
     31 H5          -9.3680   -28.4680     5.4490 ha         1 S9H       0.122000
     32 H6          -7.9540   -29.6480     7.0670 ha         1 S9H       0.119000
     33 H7          -9.4600   -30.2330     0.1830 hc         1 S9H       0.070200
     34 H8          -9.1420   -30.6450     1.9050 hc         1 S9H       0.070200
     35 H9          -7.1550   -31.2360     0.8150 hc         1 S9H       0.049700
     36 H10         -7.1350   -29.7930    -0.1910 hc         1 S9H       0.049700
     37 H11         -5.4460   -29.8420     1.7260 hc         1 S9H       0.055700
     38 H12         -6.3890   -28.3870     1.5640 hc         1 S9H       0.055700
     39 H13         -5.2020   -30.6910     3.8820 ha         1 S9H       0.136000
     40 H14         -4.7450   -31.4030     9.8960 h4         1 S9H       0.023100
     41 H15         -2.3320   -33.7820     7.1670 hn         1 S9H       0.511000
     42 H16         -4.7640   -33.8260     4.3980 ha         1 S9H       0.129500
     43 H17         -0.6770   -34.4330     5.6620 ha         1 S9H       0.129500
     44 H18         -2.2290   -36.2800    -0.5160 h1         1 S9H       0.039033
     45 H19         -3.5580   -36.4740     0.6460 h1         1 S9H       0.039033
     46 H20         -3.1160   -34.8500     0.0530 h1         1 S9H       0.039033
     47 O1          -9.6350   -27.6880     0.7270 o          1 S9H      -0.545000
@<TRIPOS>BOND
     1     1     3 ar  
     2     1     8 ar  
     3     1    21 1   
     4     2     6 ar  
     5     2    20 ar  
     6     2    27 1   
     7     3    20 ar  
     8     4    22 ar  
     9     4    24 ar  
    10     4    28 1   
    11     5    10 1   
    12     5    11 1   
    13     5    29 1   
    14     6     8 ar  
    15     6    19 1   
    16     7    21 1   
    17     7    22 ar  
    18     7    23 ar  
    19     9    23 ar  
    20     9    24 ar  
    21     9    30 1   
    22    10    14 1   
    23    10    47 2   
    24    11    12 ar  
    25    11    17 ar  
    26    12    13 ar  
    27    12    31 1   
    28    13    19 ar  
    29    13    32 1   
    30    14    15 1   
    31    14    33 1   
    32    14    34 1   
    33    15    16 1   
    34    15    35 1   
    35    15    36 1   
    36    16    17 1   
    37    16    37 1   
    38    16    38 1   
    39    17    18 ar  
    40    18    19 ar  
    41    18    39 1   
    42    20    40 1   
    43    21    41 1   
    44    22    42 1   
    45    23    43 1   
    46    24    25 1   
    47    25    26 1   
    48    26    44 1   
    49    26    45 1   
    50    26    46 1   
@<TRIPOS>SUBSTRUCTURE
     1 S9H         1 TEMP              0 ****  ****    0 ROOT
