@<TRIPOS>MOLECULE
S9I
   49    52     1     0     0
SMALL
abcg2


@<TRIPOS>ATOM
      1 N1           5.1840    11.1140    45.7190 nu         1 S9I      -0.944100
      2 N3           7.8490    10.3180    43.3780 nc         1 S9I      -0.317000
      3 C4           3.3200    15.0300    41.5450 c3         1 S9I       0.203600
      4 C5           3.9710    13.5840    43.3420 ca         1 S9I       0.381300
      5 C6           4.6170    12.4320    43.7710 ca         1 S9I      -0.316000
      6 C7           4.6000    12.2000    45.1460 ca         1 S9I       0.394900
      7 C8           5.9890    10.1540    45.0050 c3         1 S9I       0.203500
      8 C10          9.3610    11.8220    44.0410 cd         1 S9I       0.421700
      9 C13          2.7230    15.0610    46.4230 c3         1 S9I      -0.135400
     10 C15          3.7420    16.3440    37.1690 ca         1 S9I      -0.156000
     11 C17          3.5070    18.5270    36.1820 ca         1 S9I      -0.130300
     12 C18          3.8340    19.5490    35.1320 c3         1 S9I      -0.041800
     13 C            2.5950    18.7920    37.1980 ca         1 S9I       0.338900
     14 C16          4.0890    17.2580    36.1900 ca         1 S9I      -0.074000
     15 C1           2.8120    16.7060    38.1490 ca         1 S9I       0.378300
     16 N            2.2500    17.9230    38.1530 nb         1 S9I      -0.666000
     17 C2           2.4160    15.8000    39.2520 cx         1 S9I      -0.176000
     18 C14          2.5340    14.2970    39.1810 cx         1 S9I      -0.100400
     19 C3           3.4700    15.0630    40.0600 cx         1 S9I      -0.123700
     20 O            3.9740    13.8320    42.0230 os         1 S9I      -0.465300
     21 N5           3.3630    14.4340    44.1690 nb         1 S9I      -0.298000
     22 C12          3.4030    14.1230    45.4720 ca         1 S9I       0.207300
     23 N4           3.9920    13.0560    45.9970 nb         1 S9I      -0.283000
     24 C9           7.2840    10.7120    44.4770 cd         1 S9I       0.368700
     25 N2           9.0430    10.9480    43.1310 nc         1 S9I      -0.325000
     26 S            8.1790    11.9380    45.3100 ss         1 S9I      -0.272800
     27 H1           5.1870    11.0960    46.7270 hn         1 S9I       0.510000
     28 H2           3.7870    15.8990    42.0130 h1         1 S9I       0.057700
     29 H3           2.2670    15.0080    41.8340 h1         1 S9I       0.057700
     30 H4           5.1030    11.7770    43.0650 ha         1 S9I       0.152000
     31 H5           5.4370     9.7270    44.1660 h1         1 S9I       0.081700
     32 H6           6.2110     9.3380    45.6940 h1         1 S9I       0.081700
     33 H7           2.3210    15.9220    45.8950 hc         1 S9I       0.059700
     34 H8           1.9090    14.5470    46.9400 hc         1 S9I       0.059700
     35 H9           3.4260    15.4000    47.1870 hc         1 S9I       0.059700
     36 H10          4.1960    15.3620    37.1760 ha         1 S9I       0.123000
     37 H11          3.3090    19.3280    34.1980 hc         1 S9I       0.045033
     38 H12          3.5380    20.5490    35.4510 hc         1 S9I       0.045033
     39 H13          4.9020    19.5590    34.9100 hc         1 S9I       0.045033
     40 H14          2.1160    19.7660    37.2470 h4         1 S9I       0.017100
     41 H15          4.8130    16.9890    35.4300 ha         1 S9I       0.117000
     42 H16          1.5770    16.1800    39.8220 hc         1 S9I       0.101700
     43 H17          1.7450    13.7330    39.6630 hc         1 S9I       0.078700
     44 H18          2.9240    13.8520    38.2750 hc         1 S9I       0.078700
     45 H19          4.4850    15.1800    39.6970 hc         1 S9I       0.090700
     46 H20         11.1620    12.4130    43.1100 hc         1 S9I       0.064700
     47 H21         10.3530    13.7130    44.0090 hc         1 S9I       0.064700
     48 H22         11.2200    12.4510    44.8850 hc         1 S9I       0.064700
     49 C11         10.5970    12.6490    44.0110 c3         1 S9I      -0.132400
@<TRIPOS>BOND
     1     1     6 1   
     2     1     7 1   
     3     1    27 1   
     4     2    24 2   
     5     2    25 1   
     6     3    19 1   
     7     3    20 1   
     8     3    28 1   
     9     3    29 1   
    10     4     5 ar  
    11     4    20 1   
    12     4    21 ar  
    13     5     6 ar  
    14     5    30 1   
    15     6    23 ar  
    16     7    24 1   
    17     7    31 1   
    18     7    32 1   
    19     8    25 2   
    20     8    26 1   
    21     8    49 1   
    22     9    22 1   
    23     9    33 1   
    24     9    34 1   
    25     9    35 1   
    26    10    14 ar  
    27    10    15 ar  
    28    10    36 1   
    29    11    12 1   
    30    11    13 ar  
    31    11    14 ar  
    32    12    37 1   
    33    12    38 1   
    34    12    39 1   
    35    13    16 ar  
    36    13    40 1   
    37    14    41 1   
    38    15    16 ar  
    39    15    17 1   
    40    17    18 1   
    41    17    19 1   
    42    17    42 1   
    43    18    19 1   
    44    18    43 1   
    45    18    44 1   
    46    19    45 1   
    47    21    22 ar  
    48    22    23 ar  
    49    24    26 1   
    50    46    49 1   
    51    47    49 1   
    52    48    49 1   
@<TRIPOS>SUBSTRUCTURE
     1 S9I         1 TEMP              0 ****  ****    0 ROOT
