@<TRIPOS>MOLECULE
S9I
   49    52     1     0     0
SMALL
No Charge or Current Charge


@<TRIPOS>ATOM
      1 N1           5.1420    10.9170    45.5900 nu         1 S9I      -0.944100
      2 N3           7.7350    10.7210    43.1390 nc         1 S9I      -0.317000
      3 C4           3.2570    15.1680    41.6310 c3         1 S9I       0.203600
      4 C5           3.9120    13.6160    43.4090 ca         1 S9I       0.381300
      5 C6           4.5220    12.4100    43.7650 ca         1 S9I      -0.316000
      6 C7           4.5660    12.0850    45.1220 ca         1 S9I       0.394900
      7 C8           6.0660    10.0060    44.8500 c3         1 S9I       0.203500
      8 C10          9.3820    11.8530    44.1490 cd         1 S9I       0.421700
      9 C13          2.8740    14.9380    46.6800 c3         1 S9I      -0.135400
     10 C15          3.8410    16.4470    37.2230 ca         1 S9I      -0.156000
     11 C17          3.4710    18.4850    35.9860 ca         1 S9I      -0.130300
     12 C18          3.7990    19.4300    34.8390 c3         1 S9I      -0.041800
     13 C            2.4440    18.7860    36.9030 ca         1 S9I       0.338900
     14 C16          4.1850    17.2860    36.1510 ca         1 S9I      -0.074000
     15 C1           2.8000    16.8260    38.0960 ca         1 S9I       0.378300
     16 N            2.1110    17.9800    37.9370 nb         1 S9I      -0.666000
     17 C2           2.3810    15.9740    39.2690 cx         1 S9I      -0.176000
     18 C14          2.4070    14.4580    39.2300 cx         1 S9I      -0.100400
     19 C3           3.3810    15.2060    40.1130 cx         1 S9I      -0.123700
     20 O            3.8680    13.9420    42.0740 os         1 S9I      -0.465300
     21 N5           3.3840    14.4320    44.3450 nb         1 S9I      -0.298000
     22 C12          3.4730    14.0250    45.6270 ca         1 S9I       0.207300
     23 N4           4.0400    12.8820    46.0600 nb         1 S9I      -0.283000
     24 C9           7.3540    10.6950    44.4120 cd         1 S9I       0.368700
     25 N2           8.9320    11.4050    42.9840 nc         1 S9I      -0.325000
     26 S            8.4180    11.4850    45.5550 ss         1 S9I      -0.272800
     27 H1           5.0980    10.8090    46.6070 hn         1 S9I       0.510000
     28 H2           3.7670    16.0400    42.0620 h1         1 S9I       0.057700
     29 H3           2.1990    15.2050    41.9220 h1         1 S9I       0.057700
     30 H4           4.9350    11.7610    43.0030 ha         1 S9I       0.152000
     31 H5           5.5640     9.5980    43.9610 h1         1 S9I       0.081700
     32 H6           6.3410     9.1510    45.4820 h1         1 S9I       0.081700
     33 H7           2.9090    15.9880    46.3680 hc         1 S9I       0.059700
     34 H8           1.8250    14.6790    46.8670 hc         1 S9I       0.059700
     35 H9           3.4130    14.8590    47.6320 hc         1 S9I       0.059700
     36 H10          4.3790    15.5160    37.3730 ha         1 S9I       0.123000
     37 H11          3.3390    19.0860    33.9050 hc         1 S9I       0.045033
     38 H12          3.4340    20.4450    35.0370 hc         1 S9I       0.045033
     39 H13          4.8810    19.4950    34.6760 hc         1 S9I       0.045033
     40 H14          1.8660    19.7050    36.8070 h4         1 S9I       0.017100
     41 H15          4.9850    17.0100    35.4660 ha         1 S9I       0.117000
     42 H16          1.5410    16.4130    39.8030 hc         1 S9I       0.101700
     43 H17          1.5890    13.9260    39.7110 hc         1 S9I       0.078700
     44 H18          2.8010    13.9670    38.3440 hc         1 S9I       0.078700
     45 H19          4.4200    15.2250    39.7920 hc         1 S9I       0.090700
     46 H20         11.5140    12.0160    43.9280 hc         1 S9I       0.064700
     47 H21         10.6280    13.5210    43.6130 hc         1 S9I       0.064700
     48 H22         10.8500    12.9550    45.2770 hc         1 S9I       0.064700
     49 C11         10.6630    12.6290    44.2470 c3         1 S9I      -0.132400
@<TRIPOS>BOND
     1     1     6 1   
     2     1     7 1   
     3     1    27 1   
     4     2    24 2   
     5     2    25 1   
     6     3    19 1   
     7     3    20 1   
     8     3    28 1   
     9     3    29 1   
    10     4     5 ar  
    11     4    20 1   
    12     4    21 ar  
    13     5     6 ar  
    14     5    30 1   
    15     6    23 ar  
    16     7    24 1   
    17     7    31 1   
    18     7    32 1   
    19     8    25 2   
    20     8    26 1   
    21     8    49 1   
    22     9    22 1   
    23     9    33 1   
    24     9    34 1   
    25     9    35 1   
    26    10    14 ar  
    27    10    15 ar  
    28    10    36 1   
    29    11    12 1   
    30    11    13 ar  
    31    11    14 ar  
    32    12    37 1   
    33    12    38 1   
    34    12    39 1   
    35    13    16 ar  
    36    13    40 1   
    37    14    41 1   
    38    15    16 ar  
    39    15    17 1   
    40    17    18 1   
    41    17    19 1   
    42    17    42 1   
    43    18    19 1   
    44    18    43 1   
    45    18    44 1   
    46    19    45 1   
    47    21    22 ar  
    48    22    23 ar  
    49    24    26 1   
    50    46    49 1   
    51    47    49 1   
    52    48    49 1   
@<TRIPOS>SUBSTRUCTURE
     1 S9I         1 TEMP              0 ****  ****    0 ROOT
