@<TRIPOS>MOLECULE
S9J
   26    26     1     0     0
SMALL
No Charge or Current Charge


@<TRIPOS>ATOM
      1 N1           0.1860    67.7670    67.8750 n8         1 S9J      -0.722200
      2 C4          -2.5380    63.4890    70.9690 ca         1 S9J      -0.132000
      3 C5          -3.0620    64.3240    69.9700 ca         1 S9J      -0.087000
      4 C6          -2.5450    64.3030    68.6610 ca         1 S9J       0.067100
      5 C7          -2.6580    65.5130    66.4410 c3         1 S9J       0.074600
      6 C8          -1.3080    66.2740    66.4510 c          1 S9J       0.613100
      7 N           -1.0090    66.9560    67.6380 ns         1 S9J      -0.392300
      8 C            0.1210    62.4700    66.6920 c3         1 S9J       0.147900
      9 C1          -1.4770    63.4050    68.3460 ca         1 S9J       0.106100
     10 C2          -0.9600    62.5700    69.3670 ca         1 S9J      -0.183000
     11 C3          -1.4860    62.6140    70.6670 ca         1 S9J      -0.079000
     12 O1          -3.1500    65.1860    67.7710 os         1 S9J      -0.364100
     13 O2          -0.5630    66.3070    65.4760 o          1 S9J      -0.582100
     14 H1          -0.0610    68.7390    68.1170 hn         1 S9J       0.394000
     15 H2           0.7380    67.3990    68.6640 hn         1 S9J       0.394000
     16 H3          -2.9480    63.5210    71.9760 ha         1 S9J       0.120000
     17 H4          -3.8780    65.0000    70.2120 ha         1 S9J       0.128000
     18 H5          -3.3750    66.1800    65.9480 h1         1 S9J       0.075200
     19 H6          -2.5660    64.6220    65.8110 h1         1 S9J       0.075200
     20 H7          -1.7000    66.8470    68.3840 hn         1 S9J       0.319500
     21 H8           0.3610    62.5940    65.6290 h1         1 S9J       0.044367
     22 H9           1.0230    62.7020    67.2720 h1         1 S9J       0.044367
     23 H10         -0.1460    61.4180    66.8570 h1         1 S9J       0.044367
     24 H11         -0.1500    61.8730    69.1720 ha         1 S9J       0.120000
     25 H12         -1.0800    61.9660    71.4420 ha         1 S9J       0.116000
     26 O           -0.9650    63.3390    67.0610 os         1 S9J      -0.343100
@<TRIPOS>BOND
     1     1     7 1   
     2     1    14 1   
     3     1    15 1   
     4     2     3 ar  
     5     2    11 ar  
     6     2    16 1   
     7     3     4 ar  
     8     3    17 1   
     9     4     9 ar  
    10     4    12 1   
    11     5     6 1   
    12     5    12 1   
    13     5    18 1   
    14     5    19 1   
    15     6     7 1   
    16     6    13 2   
    17     7    20 1   
    18     8    21 1   
    19     8    22 1   
    20     8    23 1   
    21     8    26 1   
    22     9    10 ar  
    23     9    26 1   
    24    10    11 ar  
    25    10    24 1   
    26    11    25 1   
@<TRIPOS>SUBSTRUCTURE
     1 S9J         1 TEMP              0 ****  ****    0 ROOT
