@<TRIPOS>MOLECULE
S9J
   26    26     1     0     0
SMALL
abcg2


@<TRIPOS>ATOM
      1 N1           0.3350    67.6490    66.4240 n8         1 S9J      -0.722200
      2 C4          -3.1210    62.7890    70.7170 ca         1 S9J      -0.132000
      3 C5          -3.2650    64.0100    70.0680 ca         1 S9J      -0.087000
      4 C6          -2.3640    64.3990    69.0930 ca         1 S9J       0.067100
      5 C7          -2.7300    65.6510    67.1080 c3         1 S9J       0.074600
      6 C8          -1.6060    66.2950    66.3140 c          1 S9J       0.613100
      7 N           -0.7330    67.0120    67.0310 ns         1 S9J      -0.392300
      8 C            0.6350    63.2210    67.4070 c3         1 S9J       0.147900
      9 C1          -1.2930    63.5580    68.7490 ca         1 S9J       0.106100
     10 C2          -1.1630    62.3310    69.3900 ca         1 S9J      -0.183000
     11 C3          -2.0750    61.9530    70.3710 ca         1 S9J      -0.079000
     12 O1          -2.5130    65.6220    68.5080 os         1 S9J      -0.364100
     13 O2          -1.6020    66.1910    65.0980 o          1 S9J      -0.582100
     14 H1           0.3160    68.6290    66.6750 hn         1 S9J       0.394000
     15 H2           1.1980    67.2630    66.7850 hn         1 S9J       0.394000
     16 H3          -3.8320    62.4960    71.4790 ha         1 S9J       0.120000
     17 H4          -4.0800    64.6770    70.3230 ha         1 S9J       0.128000
     18 H5          -3.6330    66.2420    66.9240 h1         1 S9J       0.075200
     19 H6          -2.9140    64.6550    66.6990 h1         1 S9J       0.075200
     20 H7          -0.7850    66.9820    68.0390 hn         1 S9J       0.319500
     21 H8           1.1720    63.7880    66.6510 h1         1 S9J       0.044367
     22 H9           1.3120    63.0140    68.2400 h1         1 S9J       0.044367
     23 H10          0.3090    62.2730    66.9720 h1         1 S9J       0.044367
     24 H11         -0.3510    61.6610    69.1410 ha         1 S9J       0.120000
     25 H12         -1.9540    60.9950    70.8600 ha         1 S9J       0.116000
     26 O           -0.4580    64.0240    67.8040 os         1 S9J      -0.343100
@<TRIPOS>BOND
     1     1     7 1   
     2     1    14 1   
     3     1    15 1   
     4     2     3 ar  
     5     2    11 ar  
     6     2    16 1   
     7     3     4 ar  
     8     3    17 1   
     9     4     9 ar  
    10     4    12 1   
    11     5     6 1   
    12     5    12 1   
    13     5    18 1   
    14     5    19 1   
    15     6     7 1   
    16     6    13 2   
    17     7    20 1   
    18     8    21 1   
    19     8    22 1   
    20     8    23 1   
    21     8    26 1   
    22     9    10 ar  
    23     9    26 1   
    24    10    11 ar  
    25    10    24 1   
    26    11    25 1   
@<TRIPOS>SUBSTRUCTURE
     1 S9J         1 TEMP              0 ****  ****    0 ROOT
