@<TRIPOS>MOLECULE
S9K
   43    46     1     0     0
SMALL
No Charge or Current Charge


@<TRIPOS>ATOM
      1 C7          -6.7090   -30.1050     5.4200 ca         1 S9K      -0.033000
      2 C9          -7.9980   -29.9840     3.3080 c3         1 S9K      -0.028100
      3 N1          -3.3770   -32.1400     8.7540 nb         1 S9K      -0.243000
      4 C2          -9.5530   -27.1020     3.3650 c          1 S9K       0.577000
      5 N2          -2.8900   -33.1260     6.7310 nu         1 S9K      -0.930900
      6 C10         -5.2550   -30.5440     7.4680 cp         1 S9K       0.236500
      7 C4          -7.6830   -27.7390     6.5050 ca         1 S9K      -0.178000
      8 N3          -4.5310   -31.4420     6.7710 nb         1 S9K      -0.247000
      9 C6          -6.2500   -29.7120     6.7050 cp         1 S9K      -0.191500
     10 O          -10.5880   -26.4890     3.1340 o          1 S9K      -0.555000
     11 C1          -8.7610   -27.7810     2.2630 c3         1 S9K      -0.153400
     12 N           -9.0740   -27.2420     4.6470 ns         1 S9K      -0.151000
     13 C3          -8.1280   -28.1280     5.2280 ca         1 S9K       0.024000
     14 C8          -7.6390   -29.3500     4.6690 ca         1 S9K      -0.127300
     15 C           -9.0040   -29.2900     2.3710 c3         1 S9K      -0.071400
     16 C5          -6.7620   -28.5050     7.2300 ca         1 S9K      -0.050000
     17 C13         -3.6240   -32.1790     7.4350 ca         1 S9K       0.392900
     18 C12         -4.0980   -31.2590     9.4720 ca         1 S9K       0.151900
     19 C11         -5.0570   -30.4330     8.8670 ca         1 S9K      -0.270000
     20 C14         -2.7500   -33.4510     5.3770 ca         1 S9K       0.320000
     21 C19         -2.9420   -32.5070     4.3480 ca         1 S9K      -0.153500
     22 C18         -2.7790   -32.8770     3.0010 ca         1 S9K      -0.083000
     23 C17         -2.4130   -34.1930     2.6740 ca         1 S9K      -0.140000
     24 C16         -2.2040   -35.1360     3.6930 ca         1 S9K      -0.083000
     25 C15         -2.3680   -34.7610     5.0390 ca         1 S9K      -0.153500
     26 H1          -6.3410   -31.0340     4.9900 ha         1 S9K       0.135000
     27 H2          -8.3600   -31.0060     3.4760 hc         1 S9K       0.053700
     28 H3          -7.0660   -30.1020     2.7400 hc         1 S9K       0.053700
     29 H4          -2.4100   -33.7740     7.3550 hn         1 S9K       0.511000
     30 H5          -8.0520   -26.8150     6.9450 ha         1 S9K       0.118000
     31 H6          -7.6880   -27.6030     2.4060 hc         1 S9K       0.074700
     32 H7          -9.0910   -27.4110     1.2850 hc         1 S9K       0.074700
     33 H8          -9.5710   -26.6830     5.3280 hn         1 S9K       0.148000
     34 H9         -10.0300   -29.4900     2.7080 hc         1 S9K       0.052700
     35 H10         -8.9150   -29.7420     1.3750 hc         1 S9K       0.052700
     36 H11         -6.4390   -28.1410     8.2010 ha         1 S9K       0.117000
     37 H12         -3.9070   -31.2200    10.5440 h4         1 S9K       0.023100
     38 H13         -5.6330   -29.7420     9.4730 ha         1 S9K       0.135000
     39 H14         -3.1990   -31.4800     4.5810 ha         1 S9K       0.127000
     40 H15         -2.9290   -32.1420     2.2130 ha         1 S9K       0.111000
     41 H16         -2.2860   -34.4800     1.6320 ha         1 S9K       0.115000
     42 H17         -1.9150   -36.1540     3.4420 ha         1 S9K       0.111000
     43 H18         -2.2060   -35.4990     5.8200 ha         1 S9K       0.127000
@<TRIPOS>BOND
     1     1     9 ar  
     2     1    14 ar  
     3     1    26 1   
     4     2    14 1   
     5     2    15 1   
     6     2    27 1   
     7     2    28 1   
     8     3    17 ar  
     9     3    18 ar  
    10     4    10 2   
    11     4    11 1   
    12     4    12 1   
    13     5    17 1   
    14     5    20 1   
    15     5    29 1   
    16     6     8 ar  
    17     6     9 1   
    18     6    19 ar  
    19     7    13 ar  
    20     7    16 ar  
    21     7    30 1   
    22     8    17 ar  
    23     9    16 ar  
    24    11    15 1   
    25    11    31 1   
    26    11    32 1   
    27    12    13 1   
    28    12    33 1   
    29    13    14 ar  
    30    15    34 1   
    31    15    35 1   
    32    16    36 1   
    33    18    19 ar  
    34    18    37 1   
    35    19    38 1   
    36    20    21 ar  
    37    20    25 ar  
    38    21    22 ar  
    39    21    39 1   
    40    22    23 ar  
    41    22    40 1   
    42    23    24 ar  
    43    23    41 1   
    44    24    25 ar  
    45    24    42 1   
    46    25    43 1   
@<TRIPOS>SUBSTRUCTURE
     1 S9K         1 TEMP              0 ****  ****    0 ROOT
