@<TRIPOS>MOLECULE
S9K
   43    46     1     0     0
SMALL
bcc


@<TRIPOS>ATOM
      1 C7          -6.4470   -29.9680     5.3250 ca         1 S9K      -0.051000
      2 C9          -7.4450   -29.5040     3.0920 c3         1 S9K      -0.028100
      3 N1          -3.7170   -32.3830     8.7760 nb         1 S9K      -0.769000
      4 C2          -9.3620   -27.0080     3.3250 c          1 S9K       0.719500
      5 N2          -3.0430   -33.2220     6.7810 nu         1 S9K      -0.737300
      6 C10         -5.3430   -30.6270     7.4550 cp         1 S9K       0.564800
      7 C4          -7.5790   -27.7600     6.4750 ca         1 S9K      -0.196000
      8 N3          -4.5930   -31.4860     6.7650 nb         1 S9K      -0.773000
      9 C6          -6.1990   -29.7190     6.6730 cp         1 S9K      -0.191500
     10 O           -9.9840   -25.9790     3.1130 o          1 S9K      -0.630500
     11 C1          -9.4200   -28.1260     2.3180 c3         1 S9K      -0.153400
     12 N           -8.6210   -27.0770     4.4720 ns         1 S9K      -0.477100
     13 C3          -7.8260   -28.0230     5.1230 ca         1 S9K       0.116600
     14 C8          -7.2390   -29.1490     4.5330 ca         1 S9K      -0.127300
     15 C           -8.9150   -29.5050     2.6900 c3         1 S9K      -0.071400
     16 C5          -6.7840   -28.5870     7.2380 ca         1 S9K      -0.068000
     17 C13         -3.8200   -32.3200     7.4430 ca         1 S9K       0.918900
     18 C12         -4.4650   -31.5300     9.4510 ca         1 S9K       0.480200
     19 C11         -5.3110   -30.6150     8.8460 ca         1 S9K      -0.418600
     20 C14         -2.8670   -33.4700     5.4230 ca         1 S9K       0.181600
     21 C19         -3.2870   -32.6230     4.3940 ca         1 S9K      -0.171500
     22 C18         -3.0350   -32.9650     3.0720 ca         1 S9K      -0.101000
     23 C17         -2.3680   -34.1360     2.7430 ca         1 S9K      -0.158000
     24 C16         -1.9420   -34.9730     3.7670 ca         1 S9K      -0.101000
     25 C15         -2.1880   -34.6480     5.0890 ca         1 S9K      -0.171500
     26 H1          -6.0100   -30.8460     4.8680 ha         1 S9K       0.153000
     27 H2          -7.0100   -30.4880     2.9120 hc         1 S9K       0.053700
     28 H3          -6.8940   -28.8080     2.4490 hc         1 S9K       0.053700
     29 H4          -2.5510   -33.8470     7.4010 hn         1 S9K       0.455800
     30 H5          -8.0230   -26.8850     6.9350 ha         1 S9K       0.136000
     31 H6          -8.8640   -27.7670     1.4460 hc         1 S9K       0.074700
     32 H7         -10.4620   -28.1810     1.9960 hc         1 S9K       0.074700
     33 H8          -8.7440   -26.2340     5.0180 hn         1 S9K       0.314500
     34 H9          -9.5240   -29.9460     3.4830 hc         1 S9K       0.052700
     35 H10         -9.0470   -30.1420     1.8140 hc         1 S9K       0.052700
     36 H11         -6.6200   -28.3290     8.2750 ha         1 S9K       0.135000
     37 H12         -4.3940   -31.5750    10.5320 h4         1 S9K       0.023100
     38 H13         -5.9130   -29.9490     9.4440 ha         1 S9K       0.153000
     39 H14         -3.8020   -31.7050     4.6220 ha         1 S9K       0.145000
     40 H15         -3.3680   -32.2950     2.2890 ha         1 S9K       0.129000
     41 H16         -2.1800   -34.3920     1.7090 ha         1 S9K       0.133000
     42 H17         -1.4160   -35.8910     3.5370 ha         1 S9K       0.129000
     43 H18         -1.8530   -35.3140     5.8760 ha         1 S9K       0.145000
@<TRIPOS>BOND
     1     1     9 ar  
     2     1    14 ar  
     3     1    26 1   
     4     2    14 1   
     5     2    15 1   
     6     2    27 1   
     7     2    28 1   
     8     3    17 ar  
     9     3    18 ar  
    10     4    10 2   
    11     4    11 1   
    12     4    12 1   
    13     5    17 1   
    14     5    20 1   
    15     5    29 1   
    16     6     8 ar  
    17     6     9 1   
    18     6    19 ar  
    19     7    13 ar  
    20     7    16 ar  
    21     7    30 1   
    22     8    17 ar  
    23     9    16 ar  
    24    11    15 1   
    25    11    31 1   
    26    11    32 1   
    27    12    13 1   
    28    12    33 1   
    29    13    14 ar  
    30    15    34 1   
    31    15    35 1   
    32    16    36 1   
    33    18    19 ar  
    34    18    37 1   
    35    19    38 1   
    36    20    21 ar  
    37    20    25 ar  
    38    21    22 ar  
    39    21    39 1   
    40    22    23 ar  
    41    22    40 1   
    42    23    24 ar  
    43    23    41 1   
    44    24    25 ar  
    45    24    42 1   
    46    25    43 1   
@<TRIPOS>SUBSTRUCTURE
     1 S9K         1 TEMP              0 ****  ****    0 ROOT
