@<TRIPOS>MOLECULE
S9M
   24    25     1     0     0
SMALL
bcc


@<TRIPOS>ATOM
      1 C10        -27.0810   101.1590   133.8090 c5         1 S9M       0.167800
      2 C02        -27.9840    99.7140   135.6630 ca         1 S9M       0.131100
      3 C03        -28.0510    99.4280   137.0240 ca         1 S9M       0.111900
      4 C05        -27.4430   100.2060   137.9870 ca         1 S9M      -0.170000
      5 C06        -26.7520   101.3230   137.5600 ca         1 S9M       0.113900
      6 C08        -26.6550   101.6550   136.2270 ca         1 S9M      -0.140000
      7 C09        -27.2580   100.8460   135.2690 ca         1 S9M      -0.145300
      8 C11        -26.0120   100.2900   133.1040 c5         1 S9M      -0.110400
      9 C12        -26.7160    99.8380   131.8080 c5         1 S9M       0.118800
     10 F07        -26.1620   102.1070   138.4800 f          1 S9M      -0.140900
     11 N13        -27.8980   100.6810   131.6780 n7         1 S9M      -0.511000
     12 N14        -28.2950   100.8410   133.0320 n7         1 S9M      -0.609000
     13 O01        -28.6050    98.9030   134.7950 oh         1 S9M      -0.505100
     14 H101       -26.8170   102.2180   133.6980 h1         1 S9M       0.043700
     15 H051       -27.5190    99.9490   139.0360 ha         1 S9M       0.169000
     16 H081       -26.1090   102.5400   135.9230 ha         1 S9M       0.148000
     17 H111       -25.1220   100.8820   132.9010 hc         1 S9M       0.064700
     18 H112       -25.7080    99.4400   133.7140 hc         1 S9M       0.064700
     19 H121       -26.0930    99.9370   130.9210 h1         1 S9M       0.070700
     20 H122       -27.0300    98.7960   131.8870 h1         1 S9M       0.070700
     21 H131       -27.5910   101.5880   131.3260 hn         1 S9M       0.318800
     22 H141       -28.9980   101.5680   133.0970 hn         1 S9M       0.382800
     23 H011       -28.6800    99.4200   133.9460 ho         1 S9M       0.482000
     24 F04        -28.7410    98.3430   137.4050 f          1 S9M      -0.125900
@<TRIPOS>BOND
     1     1     7 1   
     2     1     8 1   
     3     1    12 1   
     4     1    14 1   
     5     2     3 ar  
     6     2     7 ar  
     7     2    13 1   
     8     3     4 ar  
     9     3    24 1   
    10     4     5 ar  
    11     4    15 1   
    12     5     6 ar  
    13     5    10 1   
    14     6     7 ar  
    15     6    16 1   
    16     8     9 1   
    17     8    17 1   
    18     8    18 1   
    19     9    11 1   
    20     9    19 1   
    21     9    20 1   
    22    11    12 1   
    23    11    21 1   
    24    12    22 1   
    25    13    23 1   
@<TRIPOS>SUBSTRUCTURE
     1 S9M         1 TEMP              0 ****  ****    0 ROOT
