@<TRIPOS>MOLECULE
S9M
   24    25     1     0     0
SMALL
No Charge or Current Charge


@<TRIPOS>ATOM
      1 C10        -27.1690   101.2640   133.7630 c5         1 S9M       0.167800
      2 C02        -27.9840    99.6930   135.6450 ca         1 S9M       0.131100
      3 C03        -28.0390    99.3350   137.0120 ca         1 S9M       0.147000
      4 C05        -27.4080   100.1320   137.9790 ca         1 S9M      -0.152000
      5 C06        -26.7220   101.2860   137.5800 ca         1 S9M       0.149000
      6 C08        -26.6600   101.6470   136.2240 ca         1 S9M      -0.122000
      7 C09        -27.2890   100.8580   135.2370 ca         1 S9M      -0.145300
      8 C11        -26.0390   100.3870   133.1360 c5         1 S9M      -0.110400
      9 C12        -26.7540    99.7350   131.9250 c5         1 S9M       0.118800
     10 F07        -26.1120   102.0550   138.5070 f          1 S9M      -0.176000
     11 N13        -27.8390   100.6930   131.6300 n7         1 S9M      -0.566200
     12 N14        -28.3720   100.9480   132.9540 n7         1 S9M      -0.664200
     13 O01        -28.6090    98.9340   134.6960 oh         1 S9M      -0.544100
     14 H101       -26.9180   102.3310   133.6650 h1         1 S9M       0.043700
     15 H051       -27.4520    99.8560   139.0290 ha         1 S9M       0.151000
     16 H081       -26.1130   102.5430   135.9400 ha         1 S9M       0.130000
     17 H111       -25.1990   101.0140   132.8140 hc         1 S9M       0.064700
     18 H112       -25.6320    99.6310   133.8180 hc         1 S9M       0.064700
     19 H121       -26.0830    99.5880   131.0660 h1         1 S9M       0.070700
     20 H122       -27.1700    98.7540   132.1960 h1         1 S9M       0.070700
     21 H131       -27.4220   101.5430   131.2120 hn         1 S9M       0.374000
     22 H141       -29.0600   101.7270   132.9860 hn         1 S9M       0.438000
     23 H011       -28.5700    99.4930   133.8690 ho         1 S9M       0.521000
     24 F04        -28.7040    98.2230   137.4050 f          1 S9M      -0.161000
@<TRIPOS>BOND
     1     1     7 1   
     2     1     8 1   
     3     1    12 1   
     4     1    14 1   
     5     2     3 ar  
     6     2     7 ar  
     7     2    13 1   
     8     3     4 ar  
     9     3    24 1   
    10     4     5 ar  
    11     4    15 1   
    12     5     6 ar  
    13     5    10 1   
    14     6     7 ar  
    15     6    16 1   
    16     8     9 1   
    17     8    17 1   
    18     8    18 1   
    19     9    11 1   
    20     9    19 1   
    21     9    20 1   
    22    11    12 1   
    23    11    21 1   
    24    12    22 1   
    25    13    23 1   
@<TRIPOS>SUBSTRUCTURE
     1 S9M         1 TEMP              0 ****  ****    0 ROOT
