@<TRIPOS>MOLECULE
S9P
   18    19     1     0     0
SMALL
No Charge or Current Charge


@<TRIPOS>ATOM
      1 C4          -8.9400    79.8620   144.1900 ca         1 S9P      -0.218000
      2 C5          -8.7700    81.1200   143.5650 ca         1 S9P       0.156100
      3 C6          -9.8000    82.0780   143.6020 ca         1 S9P      -0.137000
      4 C7         -10.9720    81.7250   144.2750 ca         1 S9P       0.066100
      5 N          -12.4290    80.4290   145.4860 nc         1 S9P      -0.566100
      6 O          -12.0880    82.4460   144.4540 os         1 S9P      -0.284700
      7 C1         -12.9290    81.6430   145.1770 cd         1 S9P       0.533600
      8 C2         -11.1660    80.5130   144.8900 ca         1 S9P       0.019400
      9 C3         -10.1470    79.5480   144.8610 ca         1 S9P      -0.004000
     10 O1          -7.6040    81.4080   142.9230 oh         1 S9P      -0.530100
     11 H1          -8.1440    79.1220   144.1600 ha         1 S9P       0.117000
     12 H2          -9.6900    83.0490   143.1290 ha         1 S9P       0.149000
     13 H3         -14.4460    83.1640   145.2550 hc         1 S9P       0.067367
     14 H4         -15.0700    81.5110   145.0990 hc         1 S9P       0.067367
     15 H5         -14.4260    82.0750   146.6540 hc         1 S9P       0.067367
     16 H6         -10.2840    78.5830   145.3430 ha         1 S9P       0.134000
     17 H7          -7.0090    80.6320   142.9990 ho         1 S9P       0.468000
     18 C          -14.2930    82.1260   145.5680 c3         1 S9P      -0.104400
@<TRIPOS>BOND
     1     1     2 ar  
     2     1     9 ar  
     3     1    11 1   
     4     2     3 ar  
     5     2    10 1   
     6     3     4 ar  
     7     3    12 1   
     8     4     6 1   
     9     4     8 ar  
    10     5     7 2   
    11     5     8 1   
    12     6     7 1   
    13     7    18 1   
    14     8     9 ar  
    15     9    16 1   
    16    10    17 1   
    17    13    18 1   
    18    14    18 1   
    19    15    18 1   
@<TRIPOS>SUBSTRUCTURE
     1 S9P         1 TEMP              0 ****  ****    0 ROOT
