@<TRIPOS>MOLECULE
S9P
   18    19     1     0     0
SMALL
abcg2


@<TRIPOS>ATOM
      1 C4          -8.9730    79.8600   144.2050 ca         1 S9P      -0.218000
      2 C5          -8.8080    81.1090   143.5860 ca         1 S9P       0.156100
      3 C6          -9.8180    82.0690   143.6150 ca         1 S9P      -0.137000
      4 C7         -10.9660    81.7010   144.2840 ca         1 S9P       0.066100
      5 N          -12.4220    80.4620   145.4700 nc         1 S9P      -0.566100
      6 O          -12.0960    82.4220   144.4710 os         1 S9P      -0.284700
      7 C1         -12.9190    81.6120   145.1890 cd         1 S9P       0.533600
      8 C2         -11.1580    80.4730   144.9040 ca         1 S9P       0.019400
      9 C3         -10.1430    79.5270   144.8680 ca         1 S9P      -0.004000
     10 O1          -7.6700    81.4330   142.9390 oh         1 S9P      -0.530100
     11 H1          -8.1660    79.1380   144.1620 ha         1 S9P       0.117000
     12 H2          -9.6970    83.0340   143.1390 ha         1 S9P       0.149000
     13 H3         -14.3810    83.1670   145.2210 hc         1 S9P       0.067367
     14 H4         -15.0370    81.5330   145.0830 hc         1 S9P       0.067367
     15 H5         -14.4040    82.0930   146.6250 hc         1 S9P       0.067367
     16 H6         -10.2530    78.5590   145.3400 ha         1 S9P       0.134000
     17 H7          -7.0410    80.7030   142.9790 ho         1 S9P       0.468000
     18 C          -14.2570    82.1370   145.5470 c3         1 S9P      -0.104400
@<TRIPOS>BOND
     1     1     2 ar  
     2     1     9 ar  
     3     1    11 1   
     4     2     3 ar  
     5     2    10 1   
     6     3     4 ar  
     7     3    12 1   
     8     4     6 1   
     9     4     8 ar  
    10     5     7 2   
    11     5     8 1   
    12     6     7 1   
    13     7    18 1   
    14     8     9 ar  
    15     9    16 1   
    16    10    17 1   
    17    13    18 1   
    18    14    18 1   
    19    15    18 1   
@<TRIPOS>SUBSTRUCTURE
     1 S9P         1 TEMP              0 ****  ****    0 ROOT
