@<TRIPOS>MOLECULE
S9Q
   40    42     1     0     0
SMALL
No Charge or Current Charge


@<TRIPOS>ATOM
      1 N1         111.1510   160.7590   152.3260 nh         1 S9Q      -0.669400
      2 N3         107.6950   160.2130   153.5850 nc         1 S9Q      -0.388300
      3 C4         110.3440   159.6030   154.3340 cc         1 S9Q      -0.084200
      4 C5         109.2280   159.1540   155.2090 c          1 S9Q       0.557200
      5 C6         108.7110   160.6050   152.8160 cd         1 S9Q       0.307500
      6 C7         112.1800   161.7140   152.8160 c6         1 S9Q       0.199800
      7 C8         113.5510   161.4160   152.1590 c6         1 S9Q       0.100000
      8 C10        114.8670   162.7750   149.1220 ca         1 S9Q      -0.039300
      9 C13        115.0090   165.2420   147.7450 ca         1 S9Q      -0.117000
     10 C15        115.6110   162.8680   147.9080 ca         1 S9Q      -0.191300
     11 C1         112.2920   160.9590   149.9950 c          1 S9Q       0.562000
     12 C11        114.2310   163.9310   149.6290 ca         1 S9Q      -0.111000
     13 C12        114.2980   165.1540   148.9470 ca         1 S9Q      -0.076000
     14 C14        115.6610   164.1110   147.2310 ca         1 S9Q      -0.059000
     15 C16        116.3560   161.6550   147.3120 c3         1 S9Q       0.353300
     16 C2         110.9860   160.8190   150.8350 c6         1 S9Q       0.122800
     17 C3         110.1000   160.3240   153.1650 cd         1 S9Q       0.125400
     18 F1         117.1620   161.0570   148.2200 f          1 S9Q      -0.114333
     19 F2         117.1490   161.9810   146.2660 f          1 S9Q      -0.114333
     20 F3         115.4970   160.7140   146.8590 f          1 S9Q      -0.114333
     21 N2         107.9900   159.5210   154.7290 ns         1 S9Q      -0.226900
     22 N4         113.4920   161.2910   150.6740 n          1 S9Q      -0.406800
     23 O1         112.2750   160.7860   148.7820 o          1 S9Q      -0.545000
     24 O2         109.3570   158.5200   156.2480 o          1 S9Q      -0.519000
     25 Cl1        111.9470   159.1120   154.8490 cl         1 S9Q      -0.139000
     26 H4         108.4200   161.1510   151.9290 h4         1 S9Q       0.049800
     27 H6         112.2800   161.6770   153.9090 h1         1 S9Q       0.062700
     28 H5         111.8810   162.7410   152.5610 h1         1 S9Q       0.062700
     29 H8         113.9380   160.4740   152.5710 h1         1 S9Q       0.060700
     30 HC8        114.2590   162.2100   152.4360 h1         1 S9Q       0.060700
     31 H13        115.0610   166.1890   147.2120 ha         1 S9Q       0.123000
     32 H11        113.6750   163.8900   150.5620 ha         1 S9Q       0.116000
     33 H12        113.7980   166.0320   149.3500 ha         1 S9Q       0.118000
     34 H14        116.2070   164.2170   146.2960 ha         1 S9Q       0.132000
     35 H2         110.3610   161.6800   150.5610 h1         1 S9Q       0.075200
     36 H1         110.4840   159.9120   150.4740 h1         1 S9Q       0.075200
     37 H10        114.8450   160.6000   149.2410 h1         1 S9Q       0.082200
     38 H9         115.6020   161.4030   150.6100 h1         1 S9Q       0.082200
     39 HN2        107.2060   159.2280   155.3050 hn         1 S9Q       0.359500
     40 C9         114.7540   161.4600   149.9150 c3         1 S9Q       0.129300
@<TRIPOS>BOND
     1     1     6 1   
     2     1    16 1   
     3     1    17 1   
     4     2     5 2   
     5     2    21 1   
     6     3     4 1   
     7     3    17 2   
     8     3    25 1   
     9     4    21 1   
    10     4    24 2   
    11     5    17 1   
    12     5    26 1   
    13     6     7 1   
    14     6    27 1   
    15     6    28 1   
    16     7    22 1   
    17     7    29 1   
    18     7    30 1   
    19     8    10 ar  
    20     8    12 ar  
    21     8    40 1   
    22     9    13 ar  
    23     9    14 ar  
    24     9    31 1   
    25    10    14 ar  
    26    10    15 1   
    27    11    16 1   
    28    11    22 1   
    29    11    23 2   
    30    12    13 ar  
    31    12    32 1   
    32    13    33 1   
    33    14    34 1   
    34    15    18 1   
    35    15    19 1   
    36    15    20 1   
    37    16    35 1   
    38    16    36 1   
    39    21    39 1   
    40    22    40 1   
    41    37    40 1   
    42    38    40 1   
@<TRIPOS>SUBSTRUCTURE
     1 S9Q         1 TEMP              0 ****  ****    0 ROOT
