@<TRIPOS>MOLECULE
S9Q
   40    42     1     0     0
SMALL
abcg2


@<TRIPOS>ATOM
      1 N1         111.1320   160.8480   152.2560 nh         1 S9Q      -0.669400
      2 N3         107.9330   159.9200   153.6860 nc         1 S9Q      -0.388300
      3 C4         110.5980   159.7860   154.3650 cc         1 S9Q      -0.084200
      4 C5         109.6150   159.2910   155.2970 c          1 S9Q       0.557200
      5 C6         108.8320   160.3640   152.8780 cd         1 S9Q       0.307500
      6 C7         112.1550   161.8140   152.6160 c6         1 S9Q       0.199800
      7 C8         113.4210   161.4690   151.8760 c6         1 S9Q       0.100000
      8 C10        114.6470   162.6500   149.0050 ca         1 S9Q      -0.039300
      9 C13        115.2460   165.1950   147.9750 ca         1 S9Q      -0.117000
     10 C15        115.7290   162.8360   148.1280 ca         1 S9Q      -0.191300
     11 C1         111.9310   161.0940   149.9310 c          1 S9Q       0.562000
     12 C11        113.8900   163.7640   149.3440 ca         1 S9Q      -0.111000
     13 C12        114.1800   165.0240   148.8390 ca         1 S9Q      -0.076000
     14 C14        116.0180   164.0980   147.6230 ca         1 S9Q      -0.059000
     15 C16        116.5990   161.6840   147.7200 c3         1 S9Q       0.353300
     16 C2         110.7450   160.9950   150.8740 c6         1 S9Q       0.122800
     17 C3         110.2430   160.3470   153.1640 cd         1 S9Q       0.125400
     18 F1         117.2130   161.1170   148.7720 f          1 S9Q      -0.114333
     19 F2         117.5620   162.0420   146.8670 f          1 S9Q      -0.114333
     20 F3         115.9020   160.7090   147.1150 f          1 S9Q      -0.114333
     21 N2         108.3240   159.4250   154.8420 ns         1 S9Q      -0.226900
     22 N4         113.1560   161.2900   150.4560 n          1 S9Q      -0.406800
     23 O1         111.7340   161.0080   148.7290 o          1 S9Q      -0.545000
     24 O2         109.8560   158.7800   156.3790 o          1 S9Q      -0.519000
     25 CL1        112.2300   159.5240   154.8220 cl         1 S9Q      -0.139000
     26 H4         108.4610   160.7780   151.9520 h4         1 S9Q       0.049800
     27 H6         112.3430   161.8260   153.6850 h1         1 S9Q       0.062700
     28 H5         111.8100   162.8190   152.3420 h1         1 S9Q       0.062700
     29 H8         113.8650   160.5580   152.2870 h1         1 S9Q       0.060700
     30 HC8        114.1460   162.2760   151.9990 h1         1 S9Q       0.060700
     31 H13        115.4820   166.1710   147.5730 ha         1 S9Q       0.123000
     32 H11        113.0530   163.6580   150.0200 ha         1 S9Q       0.116000
     33 H12        113.5670   165.8680   149.1260 ha         1 S9Q       0.118000
     34 H14        116.8490   164.2440   146.9480 ha         1 S9Q       0.132000
     35 H2         110.1250   161.8860   150.7030 h1         1 S9Q       0.075200
     36 H1         110.1700   160.1280   150.5470 h1         1 S9Q       0.075200
     37 H10        114.1230   160.5720   148.7760 h1         1 S9Q       0.082200
     38 H9         115.1450   160.9030   150.1550 h1         1 S9Q       0.082200
     39 HN2        107.5780   159.1000   155.4420 hn         1 S9Q       0.359500
     40 C9         114.3020   161.2870   149.5780 c3         1 S9Q       0.129300
@<TRIPOS>BOND
     1     1     6 1   
     2     1    16 1   
     3     1    17 1   
     4     2     5 2   
     5     2    21 1   
     6     3     4 1   
     7     3    17 2   
     8     3    25 1   
     9     4    21 1   
    10     4    24 2   
    11     5    17 1   
    12     5    26 1   
    13     6     7 1   
    14     6    27 1   
    15     6    28 1   
    16     7    22 1   
    17     7    29 1   
    18     7    30 1   
    19     8    10 ar  
    20     8    12 ar  
    21     8    40 1   
    22     9    13 ar  
    23     9    14 ar  
    24     9    31 1   
    25    10    14 ar  
    26    10    15 1   
    27    11    16 1   
    28    11    22 1   
    29    11    23 2   
    30    12    13 ar  
    31    12    32 1   
    32    13    33 1   
    33    14    34 1   
    34    15    18 1   
    35    15    19 1   
    36    15    20 1   
    37    16    35 1   
    38    16    36 1   
    39    21    39 1   
    40    22    40 1   
    41    37    40 1   
    42    38    40 1   
@<TRIPOS>SUBSTRUCTURE
     1 S9Q         1 TEMP              0 ****  ****    0 ROOT
