@<TRIPOS>MOLECULE
S9S
   26    26     1     0     0
SMALL
No Charge or Current Charge


@<TRIPOS>ATOM
      1 C4          -2.9900    98.0130   124.5480 ca         1 S9S      -0.079000
      2 C5          -2.8220    98.1250   123.1560 ca         1 S9S      -0.149000
      3 C6          -3.7830    97.5810   122.2900 ca         1 S9S       0.174000
      4 C7          -4.9100    96.9250   122.8050 ca         1 S9S      -0.149000
      5 C8          -5.0800    96.8110   124.1960 ca         1 S9S      -0.079000
      6 N           -3.8890    95.8380   128.5860 n7         1 S9S      -0.873300
      7 C           -1.5320    94.7260   129.2700 c3         1 S9S      -0.386100
      8 O           -3.7110    93.3300   128.6490 o          1 S9S      -0.527000
      9 C1          -3.6770    95.9290   127.1300 c3         1 S9S       0.201800
     10 C3          -4.1210    97.3560   125.0740 ca         1 S9S      -0.107300
     11 F           -3.6200    97.6900   120.9530 f          1 S9S      -0.177000
     12 O1          -3.7120    94.6840   130.7980 o          1 S9S      -0.527000
     13 S           -3.2970    94.5140   129.4050 s6         1 S9S       1.194100
     14 H1          -2.2410    98.4350   125.2150 ha         1 S9S       0.117500
     15 H2          -1.9510    98.6320   122.7490 ha         1 S9S       0.134000
     16 H3          -5.6490    96.5050   122.1270 ha         1 S9S       0.134000
     17 H4          -5.9550    96.2990   124.5920 ha         1 S9S       0.117500
     18 H5          -3.3730    96.5900   129.0390 hn         1 S9S       0.479000
     19 H6          -1.0670    93.9070   129.8280 h1         1 S9S       0.100367
     20 H7          -1.2600    94.6740   128.2110 h1         1 S9S       0.100367
     21 H8          -1.2680    95.6940   129.7080 h1         1 S9S       0.100367
     22 H9          -4.1450    95.0770   126.6180 h1         1 S9S       0.055200
     23 H10         -2.6070    95.9200   126.8800 h1         1 S9S       0.055200
     24 H11         -3.8500    98.0880   127.0900 hc         1 S9S       0.060200
     25 H12         -5.3680    97.2450   126.8370 hc         1 S9S       0.060200
     26 C2          -4.3010    97.2270   126.5820 c3         1 S9S      -0.030100
@<TRIPOS>BOND
     1     1     2 ar  
     2     1    10 ar  
     3     1    14 1   
     4     2     3 ar  
     5     2    15 1   
     6     3     4 ar  
     7     3    11 1   
     8     4     5 ar  
     9     4    16 1   
    10     5    10 ar  
    11     5    17 1   
    12     6     9 1   
    13     6    13 1   
    14     6    18 1   
    15     7    13 1   
    16     7    19 1   
    17     7    20 1   
    18     7    21 1   
    19     8    13 2   
    20     9    22 1   
    21     9    23 1   
    22     9    26 1   
    23    10    26 1   
    24    12    13 2   
    25    24    26 1   
    26    25    26 1   
@<TRIPOS>SUBSTRUCTURE
     1 S9S         1 TEMP              0 ****  ****    0 ROOT
