@<TRIPOS>MOLECULE
S9S
   26    26     1     0     0
SMALL
abcg2


@<TRIPOS>ATOM
      1 C4          -3.1030    98.1160   124.5480 ca         1 S9S      -0.079000
      2 C5          -2.9020    98.2070   123.1780 ca         1 S9S      -0.149000
      3 C6          -3.7760    97.5460   122.3390 ca         1 S9S       0.174000
      4 C7          -4.8350    96.8020   122.8220 ca         1 S9S      -0.149000
      5 C8          -5.0160    96.7230   124.1960 ca         1 S9S      -0.079000
      6 N           -3.7310    96.0080   128.5660 n7         1 S9S      -0.873300
      7 C           -1.5550    94.4550   129.2440 c3         1 S9S      -0.386100
      8 O           -3.9430    93.5210   128.6890 o          1 S9S      -0.527000
      9 C1          -3.5440    96.0780   127.1200 c3         1 S9S       0.201800
     10 C3          -4.1590    97.3770   125.0780 ca         1 S9S      -0.107300
     11 F           -3.5950    97.6330   121.0100 f          1 S9S      -0.177000
     12 O1          -3.6430    94.8830   130.7790 o          1 S9S      -0.527000
     13 S           -3.3200    94.6400   129.3820 s6         1 S9S       1.194100
     14 H1          -2.4250    98.6360   125.2140 ha         1 S9S       0.117500
     15 H2          -2.0820    98.7860   122.7730 ha         1 S9S       0.134000
     16 H3          -5.5090    96.2970   122.1430 ha         1 S9S       0.134000
     17 H4          -5.8470    96.1460   124.5830 ha         1 S9S       0.117500
     18 H5          -3.4330    96.8430   129.0600 hn         1 S9S       0.479000
     19 H6          -1.2700    93.5430   129.7640 h1         1 S9S       0.100367
     20 H7          -1.2750    94.3790   128.1950 h1         1 S9S       0.100367
     21 H8          -1.0690    95.3130   129.7010 h1         1 S9S       0.100367
     22 H9          -3.9060    95.1510   126.6760 h1         1 S9S       0.055200
     23 H10         -2.4890    96.1860   126.8480 h1         1 S9S       0.055200
     24 H11         -4.0160    98.1760   127.0540 hc         1 S9S       0.060200
     25 H12         -5.3960    97.1170   126.8100 hc         1 S9S       0.060200
     26 C2          -4.3420    97.2550   126.5640 c3         1 S9S      -0.030100
@<TRIPOS>BOND
     1     1     2 ar  
     2     1    10 ar  
     3     1    14 1   
     4     2     3 ar  
     5     2    15 1   
     6     3     4 ar  
     7     3    11 1   
     8     4     5 ar  
     9     4    16 1   
    10     5    10 ar  
    11     5    17 1   
    12     6     9 1   
    13     6    13 1   
    14     6    18 1   
    15     7    13 1   
    16     7    19 1   
    17     7    20 1   
    18     7    21 1   
    19     8    13 2   
    20     9    22 1   
    21     9    23 1   
    22     9    26 1   
    23    10    26 1   
    24    12    13 2   
    25    24    26 1   
    26    25    26 1   
@<TRIPOS>SUBSTRUCTURE
     1 S9S         1 TEMP              0 ****  ****    0 ROOT
