@<TRIPOS>MOLECULE
S9T
   50    52     1     0     0
SMALL
No Charge or Current Charge


@<TRIPOS>ATOM
      1 C21         -3.5600     3.4610    -1.2660 c3         1 S9T       0.145900
      2 O19         -4.3560     2.3220    -0.8970 os         1 S9T      -0.322100
      3 C6          -3.8000     1.1330    -0.4480 ca         1 S9T       0.108100
      4 C5          -4.6660     0.0680    -0.1160 ca         1 S9T       0.115100
      5 O18         -6.0320     0.2520    -0.2590 os         1 S9T      -0.321100
      6 C20         -6.9890    -0.7760     0.0550 c3         1 S9T       0.145900
      7 C4          -4.1240    -1.1450     0.3600 ca         1 S9T      -0.173000
      8 C3          -2.7330    -1.3040     0.4960 ca         1 S9T      -0.056300
      9 C7          -2.4020     0.9690    -0.3130 ca         1 S9T      -0.168000
     10 C8          -1.8530    -0.2530     0.1370 ca         1 S9T      -0.075300
     11 C9          -0.3160    -0.4240     0.3020 c6         1 S9T       0.235800
     12 C11          0.5190     0.1810    -0.8710 c3         1 S9T      -0.022100
     13 C12          2.0300     0.0190    -0.7040 ca         1 S9T      -0.085300
     14 N10          0.0760    -1.8440     0.4600 n7         1 S9T      -0.872400
     15 C1          -0.7210    -2.5420     1.4820 c6         1 S9T       0.167800
     16 C2          -2.1910    -2.6350     1.0280 c6         1 S9T      -0.027100
     17 C17          2.7520    -0.8460    -1.5470 ca         1 S9T      -0.097000
     18 C16          4.1410    -0.9960    -1.3940 ca         1 S9T      -0.172000
     19 C15          4.8280    -0.2760    -0.3900 ca         1 S9T       0.109100
     20 O23          6.1970    -0.3990    -0.2120 os         1 S9T      -0.322100
     21 C25          7.0080    -1.2620    -1.0280 c3         1 S9T       0.145900
     22 C14          4.1080     0.5970     0.4600 ca         1 S9T       0.110100
     23 C13          2.7100     0.7390     0.2960 ca         1 S9T      -0.175000
     24 O22          4.8020     1.2940     1.4370 os         1 S9T      -0.322100
     25 C24          4.1540     2.2000     2.3480 c3         1 S9T       0.145900
     26 H1          -2.8800     3.2120    -2.0910 h1         1 S9T       0.038033
     27 H2          -4.2060     4.2850    -1.5950 h1         1 S9T       0.038033
     28 H3          -2.9670     3.8160    -0.4130 h1         1 S9T       0.038033
     29 H4          -8.0080    -0.4170    -0.1340 h1         1 S9T       0.039033
     30 H5          -6.8220    -1.6670    -0.5640 h1         1 S9T       0.039033
     31 H6          -6.9200    -1.0620     1.1130 h1         1 S9T       0.039033
     32 H7          -4.7690    -1.9760     0.6310 ha         1 S9T       0.117000
     33 H8          -1.7390     1.7940    -0.5440 ha         1 S9T       0.115000
     34 H9          -0.0290     0.1100     1.2210 h1         1 S9T       0.024700
     35 H10          0.1910    -0.2700    -1.8160 hc         1 S9T       0.055700
     36 H11          0.3130     1.2510    -0.9710 hc         1 S9T       0.055700
     37 H12          1.0680    -1.8660     0.7240 hn         1 S9T       0.423000
     38 H14         -0.3200    -3.5530     1.6440 h1         1 S9T       0.031700
     39 H15         -0.6570    -1.9960     2.4360 h1         1 S9T       0.031700
     40 H16         -2.8070    -2.9900     1.8650 hc         1 S9T       0.052700
     41 H17         -2.2760    -3.3930     0.2380 hc         1 S9T       0.052700
     42 H18          2.2350    -1.4090    -2.3220 ha         1 S9T       0.122000
     43 H19          4.6630    -1.6740    -2.0620 ha         1 S9T       0.119000
     44 H20          8.0570    -1.2060    -0.7140 h1         1 S9T       0.039033
     45 H21          6.6820    -2.3060    -0.9360 h1         1 S9T       0.039033
     46 H22          6.9520    -0.9660    -2.0830 h1         1 S9T       0.039033
     47 H23          2.1380     1.4050     0.9350 ha         1 S9T       0.115000
     48 H24          3.6680     3.0190     1.8030 h1         1 S9T       0.038700
     49 H25          3.3990     1.6760     2.9480 h1         1 S9T       0.038700
     50 H26          4.8900     2.6370     3.0340 h1         1 S9T       0.038700
@<TRIPOS>BOND
     1     1     2 1   
     2     1    26 1   
     3     1    27 1   
     4     1    28 1   
     5     2     3 1   
     6     3     4 ar  
     7     3     9 ar  
     8     4     5 1   
     9     4     7 ar  
    10     5     6 1   
    11     6    29 1   
    12     6    30 1   
    13     6    31 1   
    14     7     8 ar  
    15     7    32 1   
    16     8    10 ar  
    17     8    16 1   
    18     9    10 ar  
    19     9    33 1   
    20    10    11 1   
    21    11    12 1   
    22    11    14 1   
    23    11    34 1   
    24    12    13 1   
    25    12    35 1   
    26    12    36 1   
    27    13    17 ar  
    28    13    23 ar  
    29    14    15 1   
    30    14    37 1   
    31    15    16 1   
    32    15    38 1   
    33    15    39 1   
    34    16    40 1   
    35    16    41 1   
    36    17    18 ar  
    37    17    42 1   
    38    18    19 ar  
    39    18    43 1   
    40    19    20 1   
    41    19    22 ar  
    42    20    21 1   
    43    21    44 1   
    44    21    45 1   
    45    21    46 1   
    46    22    23 ar  
    47    22    24 1   
    48    23    47 1   
    49    24    25 1   
    50    25    48 1   
    51    25    49 1   
    52    25    50 1   
@<TRIPOS>SUBSTRUCTURE
     1 S9T         1 TEMP              0 ****  ****    0 ROOT
