@<TRIPOS>MOLECULE
S9T
   50    52     1     0     0
SMALL
bcc


@<TRIPOS>ATOM
      1 C21         -3.4250     3.4500    -0.7500 c3         1 S9T       0.122700
      2 O19         -4.2620     2.3300    -0.5570 os         1 S9T      -0.298900
      3 C6          -3.6830     1.1490    -0.2580 ca         1 S9T       0.108100
      4 C5          -4.5660     0.0610    -0.0960 ca         1 S9T       0.115100
      5 O18         -5.8740     0.3370    -0.2650 os         1 S9T      -0.297900
      6 C20         -6.7970    -0.7240    -0.1310 c3         1 S9T       0.122700
      7 C4          -4.0470    -1.1770     0.2300 ca         1 S9T      -0.191000
      8 C3          -2.6700    -1.3800     0.3850 ca         1 S9T      -0.056300
      9 C7          -2.3270     0.9450    -0.1060 ca         1 S9T      -0.186000
     10 C8          -1.7990    -0.3190     0.1950 ca         1 S9T      -0.075300
     11 C9          -0.2990    -0.4820     0.3450 c6         1 S9T       0.235800
     12 C11          0.4640     0.1180    -0.8490 c3         1 S9T      -0.022100
     13 C12          1.9540    -0.0240    -0.7070 ca         1 S9T      -0.085300
     14 N10          0.0500    -1.8850     0.4510 n7         1 S9T      -0.817200
     15 C1          -0.7760    -2.6140     1.3910 c6         1 S9T       0.167800
     16 C2          -2.1650    -2.7360     0.7960 c6         1 S9T      -0.027100
     17 C17          2.6590    -1.0080    -1.3740 ca         1 S9T      -0.115000
     18 C16          4.0390    -1.1400    -1.2060 ca         1 S9T      -0.190000
     19 C15          4.7290    -0.2900    -0.3600 ca         1 S9T       0.109100
     20 O23          6.0560    -0.3310    -0.1290 os         1 S9T      -0.298900
     21 C25          6.8140    -1.3180    -0.7970 c3         1 S9T       0.122700
     22 C14          4.0210     0.7170     0.3290 ca         1 S9T       0.110100
     23 C13          2.6540     0.8370     0.1480 ca         1 S9T      -0.193000
     24 O22          4.7660     1.5060     1.1270 os         1 S9T      -0.298900
     25 C24          4.1170     2.5450     1.8300 c3         1 S9T       0.122700
     26 H1          -2.7110     3.2920    -1.5640 h1         1 S9T       0.038033
     27 H2          -4.0750     4.2820    -1.0120 h1         1 S9T       0.038033
     28 H3          -2.8700     3.7090     0.1560 h1         1 S9T       0.038033
     29 H4          -7.7820    -0.3020    -0.3170 h1         1 S9T       0.039033
     30 H5          -6.6110    -1.5200    -0.8570 h1         1 S9T       0.039033
     31 H6          -6.7840    -1.1560     0.8730 h1         1 S9T       0.039033
     32 H7          -4.7080    -2.0220     0.3790 ha         1 S9T       0.135000
     33 H8          -1.6500     1.7830    -0.2110 ha         1 S9T       0.133000
     34 H9           0.0020     0.0790     1.2490 h1         1 S9T       0.024700
     35 H10          0.1240    -0.3810    -1.7590 hc         1 S9T       0.055700
     36 H11          0.2150     1.1760    -0.9530 hc         1 S9T       0.055700
     37 H12          1.0250    -1.9620     0.7070 hn         1 S9T       0.367800
     38 H14         -0.3410    -3.6020     1.5490 h1         1 S9T       0.031700
     39 H15         -0.8400    -2.1280     2.3770 h1         1 S9T       0.031700
     40 H16         -2.8510    -3.1860     1.5180 hc         1 S9T       0.052700
     41 H17         -2.1330    -3.4080    -0.0670 hc         1 S9T       0.052700
     42 H18          2.1440    -1.6880    -2.0410 ha         1 S9T       0.140000
     43 H19          4.5560    -1.9200    -1.7470 ha         1 S9T       0.137000
     44 H20          7.8460    -1.1840    -0.4810 h1         1 S9T       0.039033
     45 H21          6.4940    -2.3300    -0.5330 h1         1 S9T       0.039033
     46 H22          6.7630    -1.2080    -1.8840 h1         1 S9T       0.039033
     47 H23          2.1020     1.6130     0.6640 ha         1 S9T       0.133000
     48 H24          3.6420     3.2620     1.1540 h1         1 S9T       0.038700
     49 H25          3.3610     2.1620     2.5210 h1         1 S9T       0.038700
     50 H26          4.8850     3.0600     2.4010 h1         1 S9T       0.038700
@<TRIPOS>BOND
     1     1     2 1   
     2     1    26 1   
     3     1    27 1   
     4     1    28 1   
     5     2     3 1   
     6     3     4 ar  
     7     3     9 ar  
     8     4     5 1   
     9     4     7 ar  
    10     5     6 1   
    11     6    29 1   
    12     6    30 1   
    13     6    31 1   
    14     7     8 ar  
    15     7    32 1   
    16     8    10 ar  
    17     8    16 1   
    18     9    10 ar  
    19     9    33 1   
    20    10    11 1   
    21    11    12 1   
    22    11    14 1   
    23    11    34 1   
    24    12    13 1   
    25    12    35 1   
    26    12    36 1   
    27    13    17 ar  
    28    13    23 ar  
    29    14    15 1   
    30    14    37 1   
    31    15    16 1   
    32    15    38 1   
    33    15    39 1   
    34    16    40 1   
    35    16    41 1   
    36    17    18 ar  
    37    17    42 1   
    38    18    19 ar  
    39    18    43 1   
    40    19    20 1   
    41    19    22 ar  
    42    20    21 1   
    43    21    44 1   
    44    21    45 1   
    45    21    46 1   
    46    22    23 ar  
    47    22    24 1   
    48    23    47 1   
    49    24    25 1   
    50    25    48 1   
    51    25    49 1   
    52    25    50 1   
@<TRIPOS>SUBSTRUCTURE
     1 S9T         1 TEMP              0 ****  ****    0 ROOT
