@<TRIPOS>MOLECULE
S9W
   62    65     1     0     0
SMALL
No Charge or Current Charge


@<TRIPOS>ATOM
      1 C10         81.9330    80.0550    -1.3590 c          1 S9W       0.607100
      2 C15         82.2240    77.6590    -6.1020 ca         1 S9W      -0.130000
      3 C14         81.5830    77.2280    -4.9250 ca         1 S9W      -0.057300
      4 C13         81.6250    78.0410    -3.7740 ca         1 S9W      -0.105000
      5 C12         82.3010    79.2820    -3.7920 ca         1 S9W      -0.032000
      6 C8          82.7790    80.7790     0.9490 c          1 S9W       0.574900
      7 C2          82.2560    81.2560    -0.4260 c6         1 S9W      -0.246000
      8 C3          83.3010    82.2810    -1.0290 c6         1 S9W      -0.095900
      9 C4          83.4430    83.5750    -0.1870 c6         1 S9W       0.150100
     10 C6          81.1380    83.4420     0.5120 c6         1 S9W       0.150100
     11 C7          80.9420    82.1150    -0.2730 c6         1 S9W      -0.095900
     12 O5          82.1650    84.2350    -0.1130 os         1 S9W      -0.450000
     13 O9          83.2320    79.6610     1.1630 o          1 S9W      -0.485100
     14 N11         82.3830    80.1570    -2.6720 ns         1 S9W      -0.146000
     15 C16         82.8960    78.8900    -6.1290 ca         1 S9W      -0.085000
     16 C17         82.9320    79.6960    -4.9800 ca         1 S9W      -0.162000
     17 N19         81.4620    74.9040    -3.9670 n3         1 S9W      -0.717600
     18 C20         82.8720    74.5530    -4.3290 c6         1 S9W       0.163800
     19 C21         83.5050    73.5290    -3.3330 c6         1 S9W       0.164300
     20 N22         82.6860    72.2830    -3.1960 n3         1 S9W      -0.727600
     21 C23         81.2800    72.6380    -2.8340 c6         1 S9W       0.164300
     22 C24         80.6470    73.6590    -3.8330 c6         1 S9W       0.163800
     23 C25         83.2790    71.2910    -2.2690 c3         1 S9W       0.213100
     24 C26         84.6560    70.7980    -2.7080 ca         1 S9W      -0.073300
     25 C27         84.7850    70.0020    -3.8630 ca         1 S9W      -0.096500
     26 C28         86.0510    69.5470    -4.2740 ca         1 S9W      -0.089000
     27 C29         87.1930    69.8890    -3.5310 ca         1 S9W      -0.007900
     28 C30         87.0730    70.6830    -2.3790 ca         1 S9W      -0.089000
     29 C31         85.8070    71.1370    -1.9680 ca         1 S9W      -0.096500
     30 Br1         88.9150    69.2720    -4.0900 br         1 S9W      -0.116100
     31 O33         81.3770    79.0550    -0.9230 o          1 S9W      -0.562100
     32 H1          82.2010    77.0390    -6.9960 ha         1 S9W       0.115000
     33 H2          81.1240    77.6830    -2.8810 ha         1 S9W       0.158000
     34 H3          82.7280    81.5190     1.7770 h4         1 S9W      -0.009800
     35 H4          84.2870    81.8030    -1.1260 hc         1 S9W       0.065450
     36 H5          83.0090    82.5910    -2.0430 hc         1 S9W       0.065450
     37 H6          83.8080    83.3560     0.8270 h1         1 S9W       0.052450
     38 H7          84.1640    84.2540    -0.6660 h1         1 S9W       0.052450
     39 H8          80.2000    84.0150     0.5110 h1         1 S9W       0.052450
     40 H9          81.4090    83.2490     1.5590 h1         1 S9W       0.052450
     41 H10         80.5370    82.3570    -1.2660 hc         1 S9W       0.065450
     42 H11         80.1640    81.5200     0.2260 hc         1 S9W       0.065450
     43 H12         82.8560    81.0260    -2.8760 hn         1 S9W       0.150000
     44 H13         83.3890    79.2200    -7.0410 ha         1 S9W       0.115000
     45 H14         83.4560    80.6490    -5.0150 ha         1 S9W       0.107000
     46 H15         79.8120    76.0840    -4.5830 h1         1 S9W       0.041200
     47 H16         80.8060    75.4740    -5.9050 h1         1 S9W       0.041200
     48 H18         82.9050    74.1220    -5.3410 h1         1 S9W       0.040450
     49 H19         83.5030    75.4530    -4.3440 h1         1 S9W       0.040450
     50 H20         84.5180    73.2890    -3.6870 h1         1 S9W       0.041950
     51 H21         83.6160    74.0190    -2.3540 h1         1 S9W       0.041950
     52 H23         80.6530    71.7340    -2.8140 h1         1 S9W       0.041950
     53 H24         81.2480    73.0730    -1.8240 h1         1 S9W       0.041950
     54 H25         79.6320    73.9040    -3.4860 h1         1 S9W       0.040450
     55 H26         80.5420    73.1690    -4.8120 h1         1 S9W       0.040450
     56 H27         82.6190    70.4170    -2.1920 h1         1 S9W       0.041700
     57 H28         83.3540    71.7190    -1.2590 h1         1 S9W       0.041700
     58 H29         83.9030    69.7400    -4.4430 ha         1 S9W       0.122500
     59 H30         86.1450    68.9340    -5.1680 ha         1 S9W       0.129000
     60 H31         87.9580    70.9470    -1.8040 ha         1 S9W       0.129000
     61 H32         85.7220    71.7530    -1.0750 ha         1 S9W       0.122500
     62 C18         80.8490    75.8890    -4.8890 c3         1 S9W       0.211100
@<TRIPOS>BOND
     1     1     7 1   
     2     1    14 1   
     3     1    31 2   
     4     2     3 ar  
     5     2    15 ar  
     6     2    32 1   
     7     3     4 ar  
     8     3    62 1   
     9     4     5 ar  
    10     4    33 1   
    11     5    14 1   
    12     5    16 ar  
    13     6     7 1   
    14     6    13 2   
    15     6    34 1   
    16     7     8 1   
    17     7    11 1   
    18     8     9 1   
    19     8    35 1   
    20     8    36 1   
    21     9    12 1   
    22     9    37 1   
    23     9    38 1   
    24    10    11 1   
    25    10    12 1   
    26    10    39 1   
    27    10    40 1   
    28    11    41 1   
    29    11    42 1   
    30    14    43 1   
    31    15    16 ar  
    32    15    44 1   
    33    16    45 1   
    34    17    18 1   
    35    17    22 1   
    36    17    62 1   
    37    18    19 1   
    38    18    48 1   
    39    18    49 1   
    40    19    20 1   
    41    19    50 1   
    42    19    51 1   
    43    20    21 1   
    44    20    23 1   
    45    21    22 1   
    46    21    52 1   
    47    21    53 1   
    48    22    54 1   
    49    22    55 1   
    50    23    24 1   
    51    23    56 1   
    52    23    57 1   
    53    24    25 ar  
    54    24    29 ar  
    55    25    26 ar  
    56    25    58 1   
    57    26    27 ar  
    58    26    59 1   
    59    27    28 ar  
    60    27    30 1   
    61    28    29 ar  
    62    28    60 1   
    63    29    61 1   
    64    46    62 1   
    65    47    62 1   
@<TRIPOS>SUBSTRUCTURE
     1 S9W         1 TEMP              0 ****  ****    0 ROOT
