@<TRIPOS>MOLECULE
S9W
   62    65     1     0     0
SMALL
abcg2


@<TRIPOS>ATOM
      1 C10         81.8700    80.1640    -1.6440 c          1 S9W       0.607100
      2 C15         82.6690    77.6740    -6.1350 ca         1 S9W      -0.130000
      3 C14         81.9440    77.2790    -5.0160 ca         1 S9W      -0.057300
      4 C13         81.8980    78.1060    -3.8930 ca         1 S9W      -0.105000
      5 C12         82.5750    79.3240    -3.8900 ca         1 S9W      -0.032000
      6 C8          83.3950    80.8350     0.1170 c          1 S9W       0.574900
      7 C2          82.1570    81.3160    -0.6400 c6         1 S9W      -0.246000
      8 C3          82.4800    82.6580    -1.3330 c6         1 S9W      -0.095900
      9 C4          82.5080    83.8050    -0.3290 c6         1 S9W       0.150100
     10 C6          81.0740    82.7120     1.1730 c6         1 S9W       0.150100
     11 C7          80.9450    81.4820     0.2850 c6         1 S9W      -0.095900
     12 O5          81.2960    83.8960     0.4080 os         1 S9W      -0.450000
     13 O9          83.3800    80.3360     1.2150 o          1 S9W      -0.485100
     14 N11         82.5820    80.2140    -2.7970 ns         1 S9W      -0.146000
     15 C16         83.3500    78.8900    -6.1320 ca         1 S9W      -0.085000
     16 C17         83.3070    79.7120    -5.0190 ca         1 S9W      -0.162000
     17 N19         81.7280    75.0390    -3.9920 n3         1 S9W      -0.717600
     18 C20         83.0830    74.5970    -4.3090 c6         1 S9W       0.163800
     19 C21         83.6110    73.6610    -3.2390 c6         1 S9W       0.164300
     20 N22         82.7290    72.5080    -3.0840 n3         1 S9W      -0.727600
     21 C23         81.3800    72.9520    -2.7510 c6         1 S9W       0.164300
     22 C24         80.8480    73.8850    -3.8260 c6         1 S9W       0.163800
     23 C25         83.2420    71.5480    -2.1130 c3         1 S9W       0.213100
     24 C26         84.4960    70.8600    -2.5920 ca         1 S9W      -0.073300
     25 C27         84.5110    70.2030    -3.8240 ca         1 S9W      -0.096500
     26 C28         85.6550    69.5640    -4.2840 ca         1 S9W      -0.089000
     27 C29         86.7970    69.5850    -3.4930 ca         1 S9W      -0.007900
     28 C30         86.8150    70.2230    -2.2630 ca         1 S9W      -0.089000
     29 C31         85.6570    70.8600    -1.8240 ca         1 S9W      -0.096500
     30 BR1         88.3860    68.7150    -4.1260 br         1 S9W      -0.116100
     31 O33         81.0820    79.2740    -1.3570 o          1 S9W      -0.562100
     32 H1          82.7080    77.0300    -7.0050 ha         1 S9W       0.115000
     33 H2          81.3400    77.7980    -3.0240 ha         1 S9W       0.158000
     34 H3          84.3440    80.9530    -0.4400 h4         1 S9W      -0.009800
     35 H4          83.4540    82.6260    -1.8300 hc         1 S9W       0.065450
     36 H5          81.7220    82.8580    -2.0920 hc         1 S9W       0.065450
     37 H6          83.3520    83.6840     0.3650 h1         1 S9W       0.052450
     38 H7          82.6320    84.7540    -0.8500 h1         1 S9W       0.052450
     39 H8          80.1520    82.8730     1.7290 h1         1 S9W       0.052450
     40 H9          81.8930    82.5880     1.8920 h1         1 S9W       0.052450
     41 H10         80.0510    81.5810    -0.3340 hc         1 S9W       0.065450
     42 H11         80.8220    80.5960     0.9040 hc         1 S9W       0.065450
     43 H12         83.1680    81.0240    -2.9270 hn         1 S9W       0.150000
     44 H13         83.9200    79.1960    -7.0000 ha         1 S9W       0.115000
     45 H14         83.8350    80.6590    -5.0160 ha         1 S9W       0.107000
     46 H15         80.1530    76.1420    -4.7570 h1         1 S9W       0.041200
     47 H16         81.2370    75.5150    -6.0030 h1         1 S9W       0.041200
     48 H18         83.1080    74.0830    -5.2860 h1         1 S9W       0.040450
     49 H19         83.7340    75.4700    -4.3800 h1         1 S9W       0.040450
     50 H20         84.6060    73.3140    -3.5210 h1         1 S9W       0.041950
     51 H21         83.7070    74.2100    -2.2860 h1         1 S9W       0.041950
     52 H23         80.7310    72.0780    -2.6750 h1         1 S9W       0.041950
     53 H24         81.3600    73.4720    -1.7780 h1         1 S9W       0.041950
     54 H25         79.8550    74.2400    -3.5440 h1         1 S9W       0.040450
     55 H26         80.7490    73.3230    -4.7710 h1         1 S9W       0.040450
     56 H27         82.4610    70.7990    -1.9500 h1         1 S9W       0.041700
     57 H28         83.4380    72.0230    -1.1380 h1         1 S9W       0.041700
     58 H29         83.6190    70.2020    -4.4370 ha         1 S9W       0.122500
     59 H30         85.6560    69.0590    -5.2400 ha         1 S9W       0.129000
     60 H31         87.7110    70.2340    -1.6590 ha         1 S9W       0.129000
     61 H32         85.6660    71.3700    -0.8680 ha         1 S9W       0.122500
     62 C18         81.2050    75.9630    -4.9960 c3         1 S9W       0.211100
@<TRIPOS>BOND
     1     1     7 1   
     2     1    14 1   
     3     1    31 2   
     4     2     3 ar  
     5     2    15 ar  
     6     2    32 1   
     7     3     4 ar  
     8     3    62 1   
     9     4     5 ar  
    10     4    33 1   
    11     5    14 1   
    12     5    16 ar  
    13     6     7 1   
    14     6    13 2   
    15     6    34 1   
    16     7     8 1   
    17     7    11 1   
    18     8     9 1   
    19     8    35 1   
    20     8    36 1   
    21     9    12 1   
    22     9    37 1   
    23     9    38 1   
    24    10    11 1   
    25    10    12 1   
    26    10    39 1   
    27    10    40 1   
    28    11    41 1   
    29    11    42 1   
    30    14    43 1   
    31    15    16 ar  
    32    15    44 1   
    33    16    45 1   
    34    17    18 1   
    35    17    22 1   
    36    17    62 1   
    37    18    19 1   
    38    18    48 1   
    39    18    49 1   
    40    19    20 1   
    41    19    50 1   
    42    19    51 1   
    43    20    21 1   
    44    20    23 1   
    45    21    22 1   
    46    21    52 1   
    47    21    53 1   
    48    22    54 1   
    49    22    55 1   
    50    23    24 1   
    51    23    56 1   
    52    23    57 1   
    53    24    25 ar  
    54    24    29 ar  
    55    25    26 ar  
    56    25    58 1   
    57    26    27 ar  
    58    26    59 1   
    59    27    28 ar  
    60    27    30 1   
    61    28    29 ar  
    62    28    60 1   
    63    29    61 1   
    64    46    62 1   
    65    47    62 1   
@<TRIPOS>SUBSTRUCTURE
     1 S9W         1 TEMP              0 ****  ****    0 ROOT
