@<TRIPOS>MOLECULE
S9X
   33    32     1     0     0
SMALL
abcg2


@<TRIPOS>ATOM
      1 O          -87.7260    23.6930   -12.0500 o          1 S9X      -0.732500
      2 C          -87.5070    23.1440   -10.9380 c          1 S9X       0.727000
      3 CA         -88.3300    21.8400   -10.6610 c3         1 S9X       0.041200
      4 CB1        -87.8040    21.0920    -9.4300 c3         1 S9X      -0.062900
      5 N          -88.1160    20.9920   -11.8600 n8         1 S9X      -0.990200
      6 CB         -89.8380    22.1810   -10.5330 c3         1 S9X      -0.062900
      7 CG         -90.3250    22.9030    -9.2700 c3         1 S9X      -0.063900
      8 CD         -89.9330    24.3780    -9.1270 c3         1 S9X      -0.077400
      9 CE         -90.5260    25.2810   -10.2080 c3         1 S9X      -0.085100
     10 CG1        -88.5170    19.7810    -9.1010 c3         1 S9X      -0.063900
     11 CD1        -87.9190    19.0770    -7.8840 c3         1 S9X      -0.077400
     12 CE1        -88.6320    17.7730    -7.5370 c3         1 S9X      -0.085100
     13 H1         -86.7430    20.8870    -9.5930 hc         1 S9X       0.034950
     14 H3         -87.8560    21.7530    -8.5630 hc         1 S9X       0.034950
     15 H          -88.8130    20.2530   -11.8810 hn         1 S9X       0.377000
     16 H2         -88.2940    21.5790   -12.6690 hn         1 S9X       0.377000
     17 H7         -90.1160    22.7520   -11.4210 hc         1 S9X       0.034950
     18 H8         -90.3800    21.2330   -10.6030 hc         1 S9X       0.034950
     19 H9         -91.4190    22.8400    -9.2540 hc         1 S9X       0.019450
     20 H10        -89.9820    22.3580    -8.3860 hc         1 S9X       0.019450
     21 H11        -88.8460    24.4730    -9.1250 hc         1 S9X       0.040200
     22 H12        -90.2750    24.7270    -8.1480 hc         1 S9X       0.040200
     23 H13        -90.2660    26.3280   -10.0300 hc         1 S9X       0.022700
     24 H14        -90.1550    25.0150   -11.1990 hc         1 S9X       0.022700
     25 H15        -91.6170    25.2060   -10.2260 hc         1 S9X       0.022700
     26 H16        -89.5790    19.9650    -8.9110 hc         1 S9X       0.019450
     27 H17        -88.4700    19.1010    -9.9580 hc         1 S9X       0.019450
     28 H18        -86.8580    18.8760    -8.0710 hc         1 S9X       0.040200
     29 H19        -87.9550    19.7550    -7.0240 hc         1 S9X       0.040200
     30 H20        -88.1880    17.2940    -6.6610 hc         1 S9X       0.022700
     31 H21        -89.6890    17.9510    -7.3210 hc         1 S9X       0.022700
     32 H22        -88.5780    17.0640    -8.3680 hc         1 S9X       0.022700
     33 OXT        -86.7000    23.5540   -10.0690 o          1 S9X      -0.732500
@<TRIPOS>BOND
     1     1     2 1   
     2     2     3 1   
     3     2    33 1   
     4     3     4 1   
     5     3     5 1   
     6     3     6 1   
     7     4    10 1   
     8     4    13 1   
     9     4    14 1   
    10     5    15 1   
    11     5    16 1   
    12     6     7 1   
    13     6    17 1   
    14     6    18 1   
    15     7     8 1   
    16     7    19 1   
    17     7    20 1   
    18     8     9 1   
    19     8    21 1   
    20     8    22 1   
    21     9    23 1   
    22     9    24 1   
    23     9    25 1   
    24    10    11 1   
    25    10    26 1   
    26    10    27 1   
    27    11    12 1   
    28    11    28 1   
    29    11    29 1   
    30    12    30 1   
    31    12    31 1   
    32    12    32 1   
@<TRIPOS>SUBSTRUCTURE
     1 S9X         1 TEMP              0 ****  ****    0 ROOT
