@<TRIPOS>MOLECULE
S9X
   33    32     1     0     0
SMALL
No Charge or Current Charge


@<TRIPOS>ATOM
      1 O          -87.6540    23.8260   -11.9960 o          1 S9X      -0.732500
      2 C          -87.4970    23.2230   -10.9390 c          1 S9X       0.727000
      3 CA         -88.3210    21.8580   -10.7250 c3         1 S9X       0.041200
      4 CB1        -87.7840    21.0840    -9.4660 c3         1 S9X      -0.062900
      5 N          -88.1750    20.9260   -11.9050 n8         1 S9X      -0.990200
      6 CB         -89.8570    22.1770   -10.6080 c3         1 S9X      -0.062900
      7 CG         -90.3790    22.8840    -9.3200 c3         1 S9X      -0.063900
      8 CD         -89.9710    24.3610    -9.0960 c3         1 S9X      -0.077400
      9 CE         -90.4840    25.3370   -10.1750 c3         1 S9X      -0.085100
     10 CG1        -88.5000    19.7530    -9.0990 c3         1 S9X      -0.063900
     11 CD1        -87.8970    19.0750    -7.8490 c3         1 S9X      -0.077400
     12 CE1        -88.6040    17.7580    -7.4740 c3         1 S9X      -0.085100
     13 H1         -86.7200    20.8640    -9.6210 hc         1 S9X       0.034950
     14 H3         -87.8260    21.7460    -8.5930 hc         1 S9X       0.034950
     15 H          -88.9480    20.2540   -11.8960 hn         1 S9X       0.377000
     16 H2         -88.3250    21.4720   -12.7610 hn         1 S9X       0.377000
     17 H7         -90.1680    22.7650   -11.4800 hc         1 S9X       0.034950
     18 H8         -90.4160    21.2360   -10.6940 hc         1 S9X       0.034950
     19 H9         -91.4750    22.8440    -9.3410 hc         1 S9X       0.019450
     20 H10        -90.0870    22.3040    -8.4370 hc         1 S9X       0.019450
     21 H11        -88.8840    24.4470    -9.0050 hc         1 S9X       0.040200
     22 H12        -90.3770    24.6820    -8.1290 hc         1 S9X       0.040200
     23 H13        -90.2190    26.3680    -9.9110 hc         1 S9X       0.022700
     24 H14        -90.0450    25.1160   -11.1540 hc         1 S9X       0.022700
     25 H15        -91.5760    25.2770   -10.2640 hc         1 S9X       0.022700
     26 H16        -89.5640    19.9410    -8.9120 hc         1 S9X       0.019450
     27 H17        -88.4410    19.0530    -9.9410 hc         1 S9X       0.019450
     28 H18        -86.8330    18.8700    -8.0240 hc         1 S9X       0.040200
     29 H19        -87.9550    19.7640    -6.9980 hc         1 S9X       0.040200
     30 H20        -88.1410    17.3160    -6.5840 hc         1 S9X       0.022700
     31 H21        -89.6640    17.9350    -7.2580 hc         1 S9X       0.022700
     32 H22        -88.5330    17.0320    -8.2940 hc         1 S9X       0.022700
     33 OXT        -86.6340    23.5510   -10.1310 o          1 S9X      -0.732500
@<TRIPOS>BOND
     1     1     2 1   
     2     2     3 1   
     3     2    33 1   
     4     3     4 1   
     5     3     5 1   
     6     3     6 1   
     7     4    10 1   
     8     4    13 1   
     9     4    14 1   
    10     5    15 1   
    11     5    16 1   
    12     6     7 1   
    13     6    17 1   
    14     6    18 1   
    15     7     8 1   
    16     7    19 1   
    17     7    20 1   
    18     8     9 1   
    19     8    21 1   
    20     8    22 1   
    21     9    23 1   
    22     9    24 1   
    23     9    25 1   
    24    10    11 1   
    25    10    26 1   
    26    10    27 1   
    27    11    12 1   
    28    11    28 1   
    29    11    29 1   
    30    12    30 1   
    31    12    31 1   
    32    12    32 1   
@<TRIPOS>SUBSTRUCTURE
     1 S9X         1 TEMP              0 ****  ****    0 ROOT
