@<TRIPOS>MOLECULE
S9Y
   64    63     1     0     0
SMALL
No Charge or Current Charge


@<TRIPOS>ATOM
      1 C3          -2.4480    -3.3210     1.4430 c3         1 S9Y      -0.105100
      2 C2          -1.4300    -3.2460     0.2760 c3         1 S9Y       0.173300
      3 C1          -2.0340    -3.0370    -1.1560 c3         1 S9Y       0.220600
      4 O3P         -2.3860    -1.6700    -1.4790 os         1 S9Y      -0.612400
      5 P           -3.6230    -0.8650    -0.8300 p5         1 S9Y       1.383800
      6 O2          -0.4550    -2.2100     0.5380 os         1 S9Y      -0.457100
      7 C31          0.4900    -2.4030     1.5110 c          1 S9Y       0.591100
      8 O31          0.6740    -3.4570     2.1060 o          1 S9Y      -0.487000
      9 C32          1.4120    -1.1880     1.6450 c3         1 S9Y      -0.136400
     10 C33          2.6030    -1.2720     0.6620 c3         1 S9Y      -0.070400
     11 C34          3.5440    -0.0520     0.7500 c3         1 S9Y      -0.074400
     12 C35          4.7310    -0.1310    -0.2360 c3         1 S9Y      -0.075400
     13 C36          5.6700     1.0920    -0.1480 c3         1 S9Y      -0.073400
     14 C37          6.8560     1.0160    -1.1350 c3         1 S9Y      -0.075400
     15 C38          7.7940     2.2390    -1.0480 c3         1 S9Y      -0.075400
     16 C39          8.9790     2.1640    -2.0360 c3         1 S9Y      -0.075400
     17 C40          9.9150     3.3850    -1.9490 c3         1 S9Y      -0.088100
     18 O1          -4.1280     0.1790    -1.7660 o          1 S9Y      -0.801500
     19 O4          -4.7130    -1.7930    -0.4150 o          1 S9Y      -0.801500
     20 O5          -2.8740    -0.2190     0.4430 os         1 S9Y      -0.587400
     21 C4          -1.8920     0.8200     0.2940 c3         1 S9Y       0.215600
     22 C5          -2.5540     2.1840    -0.0470 c3         1 S9Y       0.086600
     23 N1          -3.4920     2.8510     0.9840 n4         1 S9Y      -0.488000
     24 C6          -3.9070     4.2280     0.4490 c3         1 S9Y       0.073900
     25 C7          -4.7560     2.0070     1.1960 c3         1 S9Y       0.073900
     26 C8          -2.7710     3.0350     2.3270 c3         1 S9Y       0.073900
     27 H1          -2.8040    -2.3330     1.7470 hc         1 S9Y       0.047033
     28 H2          -3.3150    -3.9290     1.1570 hc         1 S9Y       0.047033
     29 H3          -1.9930    -3.7930     2.3200 hc         1 S9Y       0.047033
     30 H4          -0.9300    -4.2230     0.2310 h1         1 S9Y       0.059700
     31 H5          -1.2880    -3.3890    -1.8800 h1         1 S9Y       0.044700
     32 H6          -2.9060    -3.6940    -1.2700 h1         1 S9Y       0.044700
     33 H7           0.8480    -0.2820     1.3960 hc         1 S9Y       0.055700
     34 H8           1.7960    -1.1340     2.6710 hc         1 S9Y       0.055700
     35 H9           3.1750    -2.1870     0.8660 hc         1 S9Y       0.058700
     36 H10          2.2180    -1.3590    -0.3630 hc         1 S9Y       0.058700
     37 H11          2.9700     0.8620     0.5490 hc         1 S9Y       0.030700
     38 H12          3.9310     0.0320     1.7730 hc         1 S9Y       0.030700
     39 H13          5.3060    -1.0430    -0.0350 hc         1 S9Y       0.042700
     40 H14          4.3440    -0.2150    -1.2590 hc         1 S9Y       0.042700
     41 H15          5.0940     2.0040    -0.3480 hc         1 S9Y       0.034200
     42 H16          6.0580     1.1750     0.8750 hc         1 S9Y       0.034200
     43 H17          7.4330     0.1040    -0.9360 hc         1 S9Y       0.039700
     44 H18          6.4680     0.9320    -2.1580 hc         1 S9Y       0.039700
     45 H19          7.2170     3.1510    -1.2460 hc         1 S9Y       0.035700
     46 H20          8.1830     2.3220    -0.0250 hc         1 S9Y       0.035700
     47 H21          9.5600     1.2550    -1.8400 hc         1 S9Y       0.037700
     48 H22          8.5930     2.0830    -3.0600 hc         1 S9Y       0.037700
     49 H23          9.3700     4.3090    -2.1750 hc         1 S9Y       0.031700
     50 H24         10.3460     3.4730    -0.9450 hc         1 S9Y       0.031700
     51 H25         10.7380     3.2870    -2.6680 hc         1 S9Y       0.031700
     52 H27         -1.3100     0.9230     1.2180 h1         1 S9Y       0.061200
     53 H28         -1.1830     0.5640    -0.5050 h1         1 S9Y       0.061200
     54 H29         -1.7450     2.8940    -0.2330 hx         1 S9Y       0.078200
     55 H30         -3.1120     2.0830    -0.9780 hx         1 S9Y       0.078200
     56 H31         -3.0160     4.8420     0.3040 hx         1 S9Y       0.095033
     57 H32         -4.4260     4.1020    -0.5040 hx         1 S9Y       0.095033
     58 H33         -4.5720     4.7100     1.1680 hx         1 S9Y       0.095033
     59 H34         -5.4300     2.5290     1.8770 hx         1 S9Y       0.095033
     60 H35         -5.2490     1.8510     0.2340 hx         1 S9Y       0.095033
     61 H36         -4.4780     1.0430     1.6260 hx         1 S9Y       0.095033
     62 H37         -1.8690     3.6330     2.1740 hx         1 S9Y       0.095033
     63 H38         -3.4360     3.5460     3.0260 hx         1 S9Y       0.095033
     64 H39         -2.5010     2.0560     2.7290 hx         1 S9Y       0.095033
@<TRIPOS>BOND
     1     1     2 1   
     2     1    27 1   
     3     1    28 1   
     4     1    29 1   
     5     2     3 1   
     6     2     6 1   
     7     2    30 1   
     8     3     4 1   
     9     3    31 1   
    10     3    32 1   
    11     4     5 1   
    12     5    18 1   
    13     5    19 1   
    14     5    20 1   
    15     6     7 1   
    16     7     8 2   
    17     7     9 1   
    18     9    10 1   
    19     9    33 1   
    20     9    34 1   
    21    10    11 1   
    22    10    35 1   
    23    10    36 1   
    24    11    12 1   
    25    11    37 1   
    26    11    38 1   
    27    12    13 1   
    28    12    39 1   
    29    12    40 1   
    30    13    14 1   
    31    13    41 1   
    32    13    42 1   
    33    14    15 1   
    34    14    43 1   
    35    14    44 1   
    36    15    16 1   
    37    15    45 1   
    38    15    46 1   
    39    16    17 1   
    40    16    47 1   
    41    16    48 1   
    42    17    49 1   
    43    17    50 1   
    44    17    51 1   
    45    20    21 1   
    46    21    22 1   
    47    21    52 1   
    48    21    53 1   
    49    22    23 1   
    50    22    54 1   
    51    22    55 1   
    52    23    24 1   
    53    23    25 1   
    54    23    26 1   
    55    24    56 1   
    56    24    57 1   
    57    24    58 1   
    58    25    59 1   
    59    25    60 1   
    60    25    61 1   
    61    26    62 1   
    62    26    63 1   
    63    26    64 1   
@<TRIPOS>SUBSTRUCTURE
     1 S9Y         1 TEMP              0 ****  ****    0 ROOT
