@<TRIPOS>MOLECULE
S9Y
   64    63     1     0     0
SMALL
bcc


@<TRIPOS>ATOM
      1 C3          -1.9590    -3.2880     2.0200 c3         1 S9Y      -0.105100
      2 C2          -1.7810    -3.2000     0.5150 c3         1 S9Y       0.150100
      3 C1          -3.0690    -2.9260    -0.2300 c3         1 S9Y       0.197400
      4 O3P         -3.6550    -1.7400     0.2600 os         1 S9Y      -0.589200
      5 P           -4.9070    -1.0720    -0.5650 p5         1 S9Y       1.383800
      6 O2          -0.8760    -2.1340     0.1780 os         1 S9Y      -0.433900
      7 C31          0.4330    -2.3440     0.2460 c          1 S9Y       0.640100
      8 O31          0.9280    -3.3970     0.5640 o          1 S9Y      -0.536000
      9 C32          1.2050    -1.1080    -0.1330 c3         1 S9Y      -0.136400
     10 C33          2.6960    -1.2040     0.1500 c3         1 S9Y      -0.070400
     11 C34          3.4240     0.0860    -0.2060 c3         1 S9Y      -0.074400
     12 C35          4.9170     0.0210     0.0890 c3         1 S9Y      -0.075400
     13 C36          5.6540     1.3120    -0.2470 c3         1 S9Y      -0.073400
     14 C37          7.1460     1.2480     0.0560 c3         1 S9Y      -0.075400
     15 C38          7.8830     2.5390    -0.2740 c3         1 S9Y      -0.075400
     16 C39          9.3750     2.4770     0.0330 c3         1 S9Y      -0.075400
     17 C40         10.1030     3.7710    -0.3040 c3         1 S9Y      -0.088100
     18 O1          -4.4630    -0.6680    -1.9390 o          1 S9Y      -0.801500
     19 O4          -6.1320    -1.9060    -0.3710 o          1 S9Y      -0.801500
     20 O5          -4.9990     0.2530     0.4100 os         1 S9Y      -0.564200
     21 C4          -5.0870     1.5580    -0.1080 c3         1 S9Y       0.192400
     22 C5          -4.1250     2.5210     0.5520 c3         1 S9Y       0.114800
     23 N1          -2.6500     2.3300     0.2920 n4         1 S9Y      -0.600800
     24 C6          -1.9620     3.5780     0.7350 c3         1 S9Y       0.102100
     25 C7          -2.0870     1.1940     1.0800 c3         1 S9Y       0.102100
     26 C8          -2.3730     2.1130    -1.1540 c3         1 S9Y       0.102100
     27 H1          -2.2860    -2.3390     2.4410 hc         1 S9Y       0.047033
     28 H2          -2.7110    -4.0410     2.2580 hc         1 S9Y       0.047033
     29 H3          -1.0320    -3.5820     2.5100 hc         1 S9Y       0.047033
     30 H4          -1.3900    -4.1480     0.1350 h1         1 S9Y       0.059700
     31 H5          -2.8590    -2.8540    -1.3030 h1         1 S9Y       0.044700
     32 H6          -3.7330    -3.7850    -0.0830 h1         1 S9Y       0.044700
     33 H7           1.0300    -0.9140    -1.1960 hc         1 S9Y       0.055700
     34 H8           0.7720    -0.2530     0.3950 hc         1 S9Y       0.055700
     35 H9           2.8560    -1.4290     1.2080 hc         1 S9Y       0.058700
     36 H10          3.1300    -2.0340    -0.4130 hc         1 S9Y       0.058700
     37 H11          3.2730     0.3140    -1.2670 hc         1 S9Y       0.030700
     38 H12          2.9800     0.9210     0.3480 hc         1 S9Y       0.030700
     39 H13          5.0650    -0.2160     1.1490 hc         1 S9Y       0.042700
     40 H14          5.3630    -0.8080    -0.4710 hc         1 S9Y       0.042700
     41 H15          5.5090     1.5490    -1.3070 hc         1 S9Y       0.034200
     42 H16          5.2050     2.1410     0.3110 hc         1 S9Y       0.034200
     43 H17          7.2890     1.0090     1.1160 hc         1 S9Y       0.039700
     44 H18          7.5950     0.4200    -0.5030 hc         1 S9Y       0.039700
     45 H19          7.7430     2.7780    -1.3340 hc         1 S9Y       0.035700
     46 H20          7.4330     3.3680     0.2830 hc         1 S9Y       0.035700
     47 H21          9.5150     2.2410     1.0920 hc         1 S9Y       0.037700
     48 H22          9.8230     1.6470    -0.5230 hc         1 S9Y       0.037700
     49 H23         10.0160     4.0070    -1.3670 hc         1 S9Y       0.031700
     50 H24          9.6870     4.6120     0.2530 hc         1 S9Y       0.031700
     51 H25         11.1650     3.7090    -0.0660 hc         1 S9Y       0.031700
     52 H27         -4.9750     1.5810    -1.1930 h1         1 S9Y       0.061200
     53 H28         -6.0790     1.9690     0.1080 h1         1 S9Y       0.061200
     54 H29         -4.3690     3.5170     0.1850 hx         1 S9Y       0.078200
     55 H30         -4.2480     2.5220     1.6350 hx         1 S9Y       0.078200
     56 H31         -2.3410     4.4210     0.1620 hx         1 S9Y       0.095033
     57 H32         -2.1580     3.7340     1.7930 hx         1 S9Y       0.095033
     58 H33         -0.8940     3.4710     0.5720 hx         1 S9Y       0.095033
     59 H34         -1.0050     1.2150     0.9790 hx         1 S9Y       0.095033
     60 H35         -2.3530     1.3240     2.1250 hx         1 S9Y       0.095033
     61 H36         -2.4630     0.2470     0.7140 hx         1 S9Y       0.095033
     62 H37         -2.7910     2.9380    -1.7270 hx         1 S9Y       0.095033
     63 H38         -1.2960     2.0790    -1.2980 hx         1 S9Y       0.095033
     64 H39         -2.8160     1.1750    -1.4790 hx         1 S9Y       0.095033
@<TRIPOS>BOND
     1     1     2 1   
     2     1    27 1   
     3     1    28 1   
     4     1    29 1   
     5     2     3 1   
     6     2     6 1   
     7     2    30 1   
     8     3     4 1   
     9     3    31 1   
    10     3    32 1   
    11     4     5 1   
    12     5    18 1   
    13     5    19 1   
    14     5    20 1   
    15     6     7 1   
    16     7     8 2   
    17     7     9 1   
    18     9    10 1   
    19     9    33 1   
    20     9    34 1   
    21    10    11 1   
    22    10    35 1   
    23    10    36 1   
    24    11    12 1   
    25    11    37 1   
    26    11    38 1   
    27    12    13 1   
    28    12    39 1   
    29    12    40 1   
    30    13    14 1   
    31    13    41 1   
    32    13    42 1   
    33    14    15 1   
    34    14    43 1   
    35    14    44 1   
    36    15    16 1   
    37    15    45 1   
    38    15    46 1   
    39    16    17 1   
    40    16    47 1   
    41    16    48 1   
    42    17    49 1   
    43    17    50 1   
    44    17    51 1   
    45    20    21 1   
    46    21    22 1   
    47    21    52 1   
    48    21    53 1   
    49    22    23 1   
    50    22    54 1   
    51    22    55 1   
    52    23    24 1   
    53    23    25 1   
    54    23    26 1   
    55    24    56 1   
    56    24    57 1   
    57    24    58 1   
    58    25    59 1   
    59    25    60 1   
    60    25    61 1   
    61    26    62 1   
    62    26    63 1   
    63    26    64 1   
@<TRIPOS>SUBSTRUCTURE
     1 S9Y         1 TEMP              0 ****  ****    0 ROOT
