@<TRIPOS>MOLECULE
S9Z
   62    64     1     0     0
SMALL
No Charge or Current Charge


@<TRIPOS>ATOM
      1 O3         113.9590    96.1580   -16.0290 o          1 S9Z      -0.590100
      2 C2         116.3520    89.7260   -14.8680 ca         1 S9Z      -0.075300
      3 C3         115.5290    88.7690   -15.4960 ca         1 S9Z      -0.098500
      4 C4         115.2910    87.5260   -14.8840 ca         1 S9Z      -0.088000
      5 C5         115.8750    87.2340   -13.6400 ca         1 S9Z      -0.016900
      6 C6         116.6960    88.1810   -13.0070 ca         1 S9Z      -0.088000
      7 C7         116.9340    89.4240   -13.6200 ca         1 S9Z      -0.098500
      8 C9         116.4210    93.5360   -15.3470 c6         1 S9Z       0.141800
      9 C10        115.8550    94.7150   -14.5110 c6         1 S9Z       0.098500
     10 C12        113.9340    93.3070   -13.8450 c6         1 S9Z       0.098500
     11 C17        110.2850    95.5440   -13.0330 ca         1 S9Z      -0.089000
     12 C16        111.6390    95.4140   -13.3770 ca         1 S9Z      -0.111000
     13 C15        112.0560    95.5690   -14.7190 ca         1 S9Z      -0.116600
     14 C14        113.5160    95.4670   -15.1190 c          1 S9Z       0.617700
     15 C13        114.5300    92.1320   -14.6700 c6         1 S9Z       0.141800
     16 C18        109.3330    95.8380   -14.0200 ca         1 S9Z      -0.154000
     17 C19        109.7220    96.0120   -15.3600 ca         1 S9Z      -0.028000
     18 C20        111.0890    95.8900   -15.6990 ca         1 S9Z      -0.088000
     19 C22        108.6970    96.3940   -17.6910 c          1 S9Z       0.611100
     20 N8         116.0160    92.2160   -14.7840 n3         1 S9Z      -0.721600
     21 N11        114.3740    94.6390   -14.3590 n          1 S9Z      -0.408800
     22 N21        108.7020    96.3250   -16.3010 ns         1 S9Z      -0.139000
     23 C23        107.3610    96.8080   -18.3560 c3         1 S9Z      -0.249000
     24 C24        107.1100    95.6860   -19.3810 c          1 S9Z       0.597900
     25 O25        107.0020    95.8610   -20.5900 o          1 S9Z      -0.493100
     26 O26        109.6740    96.1170   -18.3750 o          1 S9Z      -0.577100
     27 C27        106.1500    96.8330   -17.3490 c3         1 S9Z      -0.064400
     28 C28        104.7740    97.1560   -17.9760 c3         1 S9Z      -0.094600
     29 C29        107.5570    98.1940   -19.0710 c3         1 S9Z      -0.064400
     30 C30        107.8640    99.3830   -18.1310 c3         1 S9Z      -0.094600
     31 Br1        115.5500    85.5440   -12.8070 br         1 S9Z      -0.102100
     32 H1         116.2270    91.0600   -16.5550 h1         1 S9Z       0.043700
     33 H2         117.6990    91.2130   -15.5970 h1         1 S9Z       0.043700
     34 H3         115.0710    88.9900   -16.4580 ha         1 S9Z       0.122500
     35 H4         114.6540    86.7920   -15.3730 ha         1 S9Z       0.129000
     36 H5         117.1470    87.9550   -12.0430 ha         1 S9Z       0.129000
     37 H6         117.5660    90.1580   -13.1250 ha         1 S9Z       0.122500
     38 H7         116.0630    93.6340   -16.3830 h1         1 S9Z       0.044700
     39 H8         117.5170    93.6200   -15.3740 h1         1 S9Z       0.044700
     40 H9         116.3110    94.6900   -13.5110 h1         1 S9Z       0.063200
     41 H10        116.1520    95.6670   -14.9720 h1         1 S9Z       0.063200
     42 H11        114.2510    93.2090   -12.7970 h1         1 S9Z       0.063200
     43 H12        112.8410    93.2130   -13.8670 h1         1 S9Z       0.063200
     44 H13        109.9750    95.4230   -11.9970 ha         1 S9Z       0.118000
     45 H14        112.3650    95.2140   -12.5910 ha         1 S9Z       0.123000
     46 H15        114.0740    92.1420   -15.6720 h1         1 S9Z       0.044700
     47 H16        114.2290    91.1890   -14.1900 h1         1 S9Z       0.044700
     48 H17        108.2870    95.9370   -13.7380 ha         1 S9Z       0.110000
     49 H18        111.4230    96.0410   -16.7210 ha         1 S9Z       0.162000
     50 H20        107.8150    96.5520   -15.8730 hn         1 S9Z       0.155000
     51 H21        107.0240    94.6640   -18.9480 h4         1 S9Z      -0.006800
     52 H22        106.0660    95.8530   -16.8600 hc         1 S9Z       0.053700
     53 H23        106.3330    97.5590   -16.5470 hc         1 S9Z       0.053700
     54 H24        103.9880    97.0820   -17.2140 hc         1 S9Z       0.039700
     55 H25        104.7490    98.1760   -18.3770 hc         1 S9Z       0.039700
     56 H26        104.5260    96.4570   -18.7830 hc         1 S9Z       0.039700
     57 H27        108.3820    98.1140   -19.7910 hc         1 S9Z       0.053700
     58 H28        106.6700    98.4410   -19.6660 hc         1 S9Z       0.053700
     59 H29        108.0550   100.2880   -18.7210 hc         1 S9Z       0.039700
     60 H30        107.0190    99.5930   -17.4660 hc         1 S9Z       0.039700
     61 H31        108.7520    99.1880   -17.5190 hc         1 S9Z       0.039700
     62 C1         116.6110    91.0790   -15.5260 c3         1 S9Z       0.213100
@<TRIPOS>BOND
     1     1    14 2   
     2     2     3 ar  
     3     2     7 ar  
     4     2    62 1   
     5     3     4 ar  
     6     3    34 1   
     7     4     5 ar  
     8     4    35 1   
     9     5     6 ar  
    10     5    31 1   
    11     6     7 ar  
    12     6    36 1   
    13     7    37 1   
    14     8     9 1   
    15     8    20 1   
    16     8    38 1   
    17     8    39 1   
    18     9    21 1   
    19     9    40 1   
    20     9    41 1   
    21    10    15 1   
    22    10    21 1   
    23    10    42 1   
    24    10    43 1   
    25    11    12 ar  
    26    11    16 ar  
    27    11    44 1   
    28    12    13 ar  
    29    12    45 1   
    30    13    14 1   
    31    13    18 ar  
    32    14    21 1   
    33    15    20 1   
    34    15    46 1   
    35    15    47 1   
    36    16    17 ar  
    37    16    48 1   
    38    17    18 ar  
    39    17    22 1   
    40    18    49 1   
    41    19    22 1   
    42    19    23 1   
    43    19    26 2   
    44    20    62 1   
    45    22    50 1   
    46    23    24 1   
    47    23    27 1   
    48    23    29 1   
    49    24    25 2   
    50    24    51 1   
    51    27    28 1   
    52    27    52 1   
    53    27    53 1   
    54    28    54 1   
    55    28    55 1   
    56    28    56 1   
    57    29    30 1   
    58    29    57 1   
    59    29    58 1   
    60    30    59 1   
    61    30    60 1   
    62    30    61 1   
    63    32    62 1   
    64    33    62 1   
@<TRIPOS>SUBSTRUCTURE
     1 S9Z         1 TEMP              0 ****  ****    0 ROOT
