@<TRIPOS>MOLECULE
S9Z
   62    64     1     0     0
SMALL
bcc


@<TRIPOS>ATOM
      1 O3         114.1240    96.6800   -15.5600 o          1 S9Z      -0.590100
      2 C2         115.9480    89.7990   -15.0260 ca         1 S9Z      -0.075300
      3 C3         115.3310    88.7090   -15.6270 ca         1 S9Z      -0.116500
      4 C4         115.1530    87.5120   -14.9440 ca         1 S9Z      -0.106000
      5 C5         115.5970    87.4150   -13.6360 ca         1 S9Z      -0.016900
      6 C6         116.2130    88.4900   -13.0080 ca         1 S9Z      -0.106000
      7 C7         116.3820    89.6730   -13.7090 ca         1 S9Z      -0.116500
      8 C9         116.2080    93.4810   -15.6100 c6         1 S9Z       0.141800
      9 C10        115.8280    94.6560   -14.7270 c6         1 S9Z       0.098500
     10 C12        113.8690    93.4440   -13.9870 c6         1 S9Z       0.098500
     11 C17        110.4840    95.8780   -12.8740 ca         1 S9Z      -0.107000
     12 C16        111.8240    95.7180   -13.2000 ca         1 S9Z      -0.129000
     13 C15        112.2090    95.7840   -14.5330 ca         1 S9Z      -0.116600
     14 C14        113.6570    95.7460   -14.9210 c          1 S9Z       0.684700
     15 C13        114.2880    92.2830   -14.8750 c6         1 S9Z       0.141800
     16 C18        109.5430    96.0850   -13.8650 ca         1 S9Z      -0.172000
     17 C19        109.9250    96.1510   -15.2070 ca         1 S9Z       0.064600
     18 C20        111.2720    96.0160   -15.5370 ca         1 S9Z      -0.106000
     19 C22        108.9510    96.3370   -17.4860 c          1 S9Z       0.678100
     20 N8         115.7290    92.2410   -15.0300 n3         1 S9Z      -0.721600
     21 N11        114.3920    94.6950   -14.5070 n          1 S9Z      -0.475800
     22 N21        108.9010    96.3760   -16.1370 ns         1 S9Z      -0.465100
     23 C23        107.6540    96.6470   -18.2460 c3         1 S9Z      -0.249000
     24 C24        107.6710    95.6340   -19.3840 c          1 S9Z       0.597900
     25 O25        107.6540    95.9050   -20.5540 o          1 S9Z      -0.493100
     26 O26        109.9600    96.0880   -18.1250 o          1 S9Z      -0.577100
     27 C27        106.3670    96.3780   -17.4390 c3         1 S9Z      -0.064400
     28 C28        105.0770    96.5860   -18.2210 c3         1 S9Z      -0.094600
     29 C29        107.7440    98.0830   -18.7880 c3         1 S9Z      -0.064400
     30 C30        107.7320    99.1680   -17.7200 c3         1 S9Z      -0.094600
     31 BR1        115.3560    85.7960   -12.6890 br         1 S9Z      -0.102100
     32 H1         115.6730    91.0170   -16.7670 h1         1 S9Z       0.043700
     33 H2         117.2350    91.1970   -15.9810 h1         1 S9Z       0.043700
     34 H3         114.9760    88.7870   -16.6480 ha         1 S9Z       0.140500
     35 H4         114.6670    86.6790   -15.4330 ha         1 S9Z       0.147000
     36 H5         116.5590    88.4140   -11.9860 ha         1 S9Z       0.147000
     37 H6         116.8550    90.5140   -13.2170 ha         1 S9Z       0.140500
     38 H7         115.8080    93.6430   -16.6260 h1         1 S9Z       0.044700
     39 H8         117.2960    93.4420   -15.6920 h1         1 S9Z       0.044700
     40 H9         116.3240    94.5550   -13.7570 h1         1 S9Z       0.063200
     41 H10        116.1560    95.5880   -15.1790 h1         1 S9Z       0.063200
     42 H11        114.2490    93.2870   -12.9730 h1         1 S9Z       0.063200
     43 H12        112.7850    93.4730   -13.9350 h1         1 S9Z       0.063200
     44 H13        110.1690    95.8390   -11.8400 ha         1 S9Z       0.136000
     45 H14        112.5570    95.5530   -12.4220 ha         1 S9Z       0.141000
     46 H15        113.7770    92.3710   -15.8490 h1         1 S9Z       0.044700
     47 H16        113.9420    91.3580   -14.4100 h1         1 S9Z       0.044700
     48 H17        108.4990    96.1980   -13.5960 ha         1 S9Z       0.128000
     49 H18        111.6000    96.0840   -16.5610 ha         1 S9Z       0.180000
     50 H20        108.0030    96.5670   -15.7210 hn         1 S9Z       0.321500
     51 H21        107.6620    94.5810   -19.0440 h4         1 S9Z      -0.006800
     52 H22        106.3950    95.3540   -17.0550 hc         1 S9Z       0.053700
     53 H23        106.3340    97.0310   -16.5630 hc         1 S9Z       0.053700
     54 H24        104.2230    96.3500   -17.5870 hc         1 S9Z       0.039700
     55 H25        104.9610    97.6170   -18.5530 hc         1 S9Z       0.039700
     56 H26        105.0140    95.9430   -19.1000 hc         1 S9Z       0.039700
     57 H27        108.6530    98.1730   -19.3870 hc         1 S9Z       0.053700
     58 H28        106.9170    98.2480   -19.4800 hc         1 S9Z       0.053700
     59 H29        107.8100   100.1480   -18.1900 hc         1 S9Z       0.039700
     60 H30        106.8110    99.1630   -17.1370 hc         1 S9Z       0.039700
     61 H31        108.5670    99.0750   -17.0250 hc         1 S9Z       0.039700
     62 C1         116.1650    91.0830   -15.7830 c3         1 S9Z       0.213100
@<TRIPOS>BOND
     1     1    14 2   
     2     2     3 ar  
     3     2     7 ar  
     4     2    62 1   
     5     3     4 ar  
     6     3    34 1   
     7     4     5 ar  
     8     4    35 1   
     9     5     6 ar  
    10     5    31 1   
    11     6     7 ar  
    12     6    36 1   
    13     7    37 1   
    14     8     9 1   
    15     8    20 1   
    16     8    38 1   
    17     8    39 1   
    18     9    21 1   
    19     9    40 1   
    20     9    41 1   
    21    10    15 1   
    22    10    21 1   
    23    10    42 1   
    24    10    43 1   
    25    11    12 ar  
    26    11    16 ar  
    27    11    44 1   
    28    12    13 ar  
    29    12    45 1   
    30    13    14 1   
    31    13    18 ar  
    32    14    21 1   
    33    15    20 1   
    34    15    46 1   
    35    15    47 1   
    36    16    17 ar  
    37    16    48 1   
    38    17    18 ar  
    39    17    22 1   
    40    18    49 1   
    41    19    22 1   
    42    19    23 1   
    43    19    26 2   
    44    20    62 1   
    45    22    50 1   
    46    23    24 1   
    47    23    27 1   
    48    23    29 1   
    49    24    25 2   
    50    24    51 1   
    51    27    28 1   
    52    27    52 1   
    53    27    53 1   
    54    28    54 1   
    55    28    55 1   
    56    28    56 1   
    57    29    30 1   
    58    29    57 1   
    59    29    58 1   
    60    30    59 1   
    61    30    60 1   
    62    30    61 1   
    63    32    62 1   
    64    33    62 1   
@<TRIPOS>SUBSTRUCTURE
     1 S9Z         1 TEMP              0 ****  ****    0 ROOT
