@<TRIPOS>MOLECULE
SA0
   38    39     1     0     0
SMALL
bcc


@<TRIPOS>ATOM
      1 C1           0.4200     0.2770    -0.0910 c6         1 SA0       0.319900
      2 O1          -0.8570     0.4630     0.4270 os         1 SA0      -0.331900
      3 C2           1.2170     1.5560     0.1480 c6         1 SA0       0.090100
      4 O2           0.6940     2.6380    -0.5800 oh         1 SA0      -0.597800
      5 C3           2.6520     1.3280    -0.3120 c6         1 SA0       0.115100
      6 O3           3.4890     2.4070     0.0270 oh         1 SA0      -0.601800
      7 C4           3.2370     0.0730     0.3320 c6         1 SA0       0.121100
      8 O4           4.4900    -0.2450    -0.2160 oh         1 SA0      -0.594800
      9 C5           2.2980    -1.1100     0.0940 c6         1 SA0       0.155100
     10 O5           1.0140    -0.7870     0.5910 os         1 SA0      -0.414600
     11 C6           2.7580    -2.3730     0.7880 c3         1 SA0       0.149400
     12 O6           1.8900    -3.4200     0.4270 oh         1 SA0      -0.591800
     13 OAA         -4.6060     2.1100     0.6460 oh         1 SA0      -0.598800
     14 CAF         -4.1190    -1.6590    -0.9590 ca         1 SA0      -0.158000
     15 CAG         -2.8600    -2.2230    -1.0740 ca         1 SA0      -0.099000
     16 CAH         -4.2610    -0.4000    -0.3860 ca         1 SA0      -0.079000
     17 CAI         -1.7400    -1.5400    -0.6150 ca         1 SA0      -0.183000
     18 CAN         -3.1580     0.3100     0.0670 ca         1 SA0      -0.110300
     19 CAO         -1.8940    -0.2790    -0.0550 ca         1 SA0       0.129100
     20 H1           0.3680     0.0620    -1.1730 h2         1 SA0       0.048700
     21 H2           1.2190     1.7600     1.2290 h1         1 SA0       0.067700
     22 HO2         -0.1020     2.9520    -0.1400 ho         1 SA0       0.423000
     23 H3           2.6440     1.1690    -1.4020 h1         1 SA0       0.054700
     24 HO3          3.2640     3.1570    -0.5320 ho         1 SA0       0.427000
     25 H4           3.3110     0.2410     1.4190 h1         1 SA0       0.056700
     26 HO4          5.0900     0.4890    -0.0500 ho         1 SA0       0.427000
     27 H5           2.2420    -1.3000    -0.9910 h1         1 SA0       0.060700
     28 H6           3.7910    -2.5780     0.4850 h1         1 SA0       0.038700
     29 H6A          2.7660    -2.2020     1.8730 h1         1 SA0       0.038700
     30 HO6          2.1730    -4.2130     0.8910 ho         1 SA0       0.408000
     31 HOAA        -4.6580     2.9470     1.1170 ho         1 SA0       0.406000
     32 HAG         -2.7370    -3.2050    -1.5110 ha         1 SA0       0.132000
     33 HAH         -5.2480     0.0340    -0.3000 ha         1 SA0       0.151000
     34 HAI         -0.7690    -2.0120    -0.6770 ha         1 SA0       0.157000
     35 HAJ         -2.6140     2.3720     0.1320 h1         1 SA0       0.026700
     36 HAJA        -2.8870     1.6470     1.7080 h1         1 SA0       0.026700
     37 HAF         -4.9930    -2.1930    -1.3070 ha         1 SA0       0.133000
     38 CAJ         -3.2710     1.6800     0.6790 c3         1 SA0       0.196700
@<TRIPOS>BOND
     1     1     2 1   
     2     1     3 1   
     3     1    10 1   
     4     1    20 1   
     5     2    19 1   
     6     3     4 1   
     7     3     5 1   
     8     3    21 1   
     9     4    22 1   
    10     5     6 1   
    11     5     7 1   
    12     5    23 1   
    13     6    24 1   
    14     7     8 1   
    15     7     9 1   
    16     7    25 1   
    17     8    26 1   
    18     9    10 1   
    19     9    11 1   
    20     9    27 1   
    21    11    12 1   
    22    11    28 1   
    23    11    29 1   
    24    12    30 1   
    25    13    31 1   
    26    13    38 1   
    27    14    15 ar  
    28    14    16 ar  
    29    14    37 1   
    30    15    17 ar  
    31    15    32 1   
    32    16    18 ar  
    33    16    33 1   
    34    17    19 ar  
    35    17    34 1   
    36    18    19 ar  
    37    18    38 1   
    38    35    38 1   
    39    36    38 1   
@<TRIPOS>SUBSTRUCTURE
     1 SA0         1 TEMP              0 ****  ****    0 ROOT
