@<TRIPOS>MOLECULE
SA0
   38    39     1     0     0
SMALL
No Charge or Current Charge


@<TRIPOS>ATOM
      1 C1           0.4570     0.4300    -0.2940 c6         1 SA0       0.366300
      2 O1          -0.9030     0.7110     0.0890 os         1 SA0      -0.355100
      3 C2           1.3580     1.6750    -0.0020 c6         1 SA0       0.113300
      4 O2           0.9100     2.8680    -0.6940 oh         1 SA0      -0.720000
      5 C3           2.8210     1.3330    -0.4000 c6         1 SA0       0.138300
      6 O3           3.6880     2.4440    -0.1150 oh         1 SA0      -0.664000
      7 C4           3.2990     0.0530     0.3500 c6         1 SA0       0.144300
      8 O4           4.6390    -0.2780    -0.0600 oh         1 SA0      -0.717000
      9 C5           2.2920    -1.1130     0.0830 c6         1 SA0       0.178300
     10 O5           0.9500    -0.6990     0.4570 os         1 SA0      -0.461000
     11 C6           2.6520    -2.4100     0.8820 c3         1 SA0       0.172600
     12 O6           1.7130    -3.4880     0.6800 oh         1 SA0      -0.714000
     13 OAA         -3.9620     2.5050     0.2020 oh         1 SA0      -0.661000
     14 CAF         -4.1240    -1.8340    -0.8350 ca         1 SA0      -0.140000
     15 CAG         -2.8360    -2.1670    -1.2800 ca         1 SA0      -0.081000
     16 CAH         -4.3270    -0.6640    -0.0850 ca         1 SA0      -0.061000
     17 CAI         -1.7500    -1.3290    -0.9780 ca         1 SA0      -0.165000
     18 CAN         -3.2450     0.1840     0.2260 ca         1 SA0      -0.110300
     19 CAO         -1.9440    -0.1480    -0.2210 ca         1 SA0       0.129100
     20 H1           0.4930     0.2100    -1.3720 h2         1 SA0       0.048700
     21 H2           1.3310     1.8480     1.0850 h1         1 SA0       0.067700
     22 HO2         -0.0590     2.9490    -0.5180 ho         1 SA0       0.522000
     23 H3           2.8350     1.1220    -1.4810 h1         1 SA0       0.054700
     24 HO3          3.1550     3.2410    -0.3470 ho         1 SA0       0.466000
     25 H4           3.2860     0.2660     1.4300 h1         1 SA0       0.056700
     26 HO4          5.1050     0.5920    -0.1250 ho         1 SA0       0.526000
     27 H5           2.2990    -1.3620    -0.9890 h1         1 SA0       0.060700
     28 H6           3.6580    -2.7310     0.5800 h1         1 SA0       0.038700
     29 H6A          2.7030    -2.1480     1.9480 h1         1 SA0       0.038700
     30 HO6          1.9870    -4.2230     1.2770 ho         1 SA0       0.507000
     31 HOAA        -4.1250     3.2780     0.7850 ho         1 SA0       0.445000
     32 HAG         -2.6800    -3.0740    -1.8600 ha         1 SA0       0.114000
     33 HAH         -5.3300    -0.4120     0.2540 ha         1 SA0       0.133000
     34 HAI         -0.7670    -1.6180    -1.3360 ha         1 SA0       0.139000
     35 HAJ         -2.5960     1.7440     1.5830 h1         1 SA0       0.026700
     36 HAJA        -4.2630     1.2180     1.8100 h1         1 SA0       0.026700
     37 HAF         -4.9650    -2.4820    -1.0700 ha         1 SA0       0.115000
     38 CAJ         -3.5060     1.4430     1.0480 c3         1 SA0       0.219900
@<TRIPOS>BOND
     1     1     2 1   
     2     1     3 1   
     3     1    10 1   
     4     1    20 1   
     5     2    19 1   
     6     3     4 1   
     7     3     5 1   
     8     3    21 1   
     9     4    22 1   
    10     5     6 1   
    11     5     7 1   
    12     5    23 1   
    13     6    24 1   
    14     7     8 1   
    15     7     9 1   
    16     7    25 1   
    17     8    26 1   
    18     9    10 1   
    19     9    11 1   
    20     9    27 1   
    21    11    12 1   
    22    11    28 1   
    23    11    29 1   
    24    12    30 1   
    25    13    31 1   
    26    13    38 1   
    27    14    15 ar  
    28    14    16 ar  
    29    14    37 1   
    30    15    17 ar  
    31    15    32 1   
    32    16    18 ar  
    33    16    33 1   
    34    17    19 ar  
    35    17    34 1   
    36    18    19 ar  
    37    18    38 1   
    38    35    38 1   
    39    36    38 1   
@<TRIPOS>SUBSTRUCTURE
     1 SA0         1 TEMP              0 ****  ****    0 ROOT
