@<TRIPOS>MOLECULE
SA1
   41    43     1     0     0
SMALL
No Charge or Current Charge


@<TRIPOS>ATOM
      1 C1           3.7030     1.0440    -0.2170 c5         1 SA1       0.153600
      2 O2           2.6930     0.9790    -1.2430 os         1 SA1      -0.475000
      3 C3           1.8440    -0.1870    -1.0410 c5         1 SA1       0.191000
      4 C4           1.6920    -0.8440    -2.4360 c3         1 SA1      -0.088100
      5 C5           2.5960    -1.0410     0.0280 c5         1 SA1      -0.177700
      6 C6           1.9110    -0.7500     1.3680 c          1 SA1       0.567000
      7 O7           2.0960    -1.2780     2.4510 o          1 SA1      -0.544000
      8 N8           0.9380     0.1820     1.1360 ns         1 SA1      -0.502900
      9 C9           0.5120     0.2540    -0.2850 c5         1 SA1      -0.044600
     10 C10         -0.7600    -0.6440    -0.5600 c3         1 SA1       0.176300
     11 C11         -2.0930    -0.3880     0.2530 c6         1 SA1      -0.057500
     12 C12         -3.1930    -1.3580    -0.2150 c2         1 SA1      -0.229200
     13 C13         -4.4890    -1.0250    -0.3490 c2         1 SA1      -0.206200
     14 C14         -5.0360     0.3610    -0.0490 c6         1 SA1      -0.047200
     15 C15         -4.0440     1.1940     0.7900 c6         1 SA1      -0.071400
     16 C16         -2.6120     1.0800     0.2200 c6         1 SA1      -0.076400
     17 O17         -0.3870    -2.0200    -0.3710 oh         1 SA1      -0.657000
     18 C18          0.2530     1.7500    -0.6610 c          1 SA1       0.601900
     19 O19          0.3210     2.7200     0.0910 o          1 SA1      -0.499100
     20 C20          4.0340    -0.4420     0.0150 c5         1 SA1      -0.098400
     21 H11A         4.5640     1.6270    -0.5690 h1         1 SA1       0.056700
     22 H12A         3.2880     1.5280     0.6780 h1         1 SA1       0.056700
     23 H41          2.6700    -0.9700    -2.9150 hc         1 SA1       0.053033
     24 H42          1.2350    -1.8370    -2.3790 hc         1 SA1       0.053033
     25 H43          1.0740    -0.2260    -3.0990 hc         1 SA1       0.053033
     26 H5           2.5960    -2.1220    -0.1460 hc         1 SA1       0.105700
     27 HN8          0.3870     0.4970     1.9270 hn         1 SA1       0.338500
     28 H10         -1.0220    -0.4920    -1.6170 h1         1 SA1       0.082700
     29 H11         -1.8660    -0.6340     1.3000 hc         1 SA1       0.055700
     30 H12         -2.8840    -2.3810    -0.4420 ha         1 SA1       0.183000
     31 H13         -5.2190    -1.7660    -0.6840 ha         1 SA1       0.174000
     32 H141        -5.9910     0.2780     0.4880 hc         1 SA1       0.050200
     33 H142        -5.2530     0.8760    -0.9950 hc         1 SA1       0.050200
     34 H151        -4.0540     0.8420     1.8310 hc         1 SA1       0.045200
     35 H152        -4.3630     2.2450     0.8120 hc         1 SA1       0.045200
     36 H161        -1.9600     1.7230     0.8230 hc         1 SA1       0.045700
     37 H162        -2.5990     1.4680    -0.8080 hc         1 SA1       0.045700
     38 HO17        -0.4130    -2.1890     0.5940 ho         1 SA1       0.451000
     39 H18         -0.0220     1.8990    -1.7290 h4         1 SA1       0.000200
     40 H201         4.6350    -0.8450    -0.8090 hc         1 SA1       0.069700
     41 H202         4.5860    -0.6150     0.9460 hc         1 SA1       0.069700
@<TRIPOS>BOND
     1     1     2 1   
     2     1    20 1   
     3     1    21 1   
     4     1    22 1   
     5     2     3 1   
     6     3     4 1   
     7     3     5 1   
     8     3     9 1   
     9     4    23 1   
    10     4    24 1   
    11     4    25 1   
    12     5     6 1   
    13     5    20 1   
    14     5    26 1   
    15     6     7 2   
    16     6     8 1   
    17     8     9 1   
    18     8    27 1   
    19     9    10 1   
    20     9    18 1   
    21    10    11 1   
    22    10    17 1   
    23    10    28 1   
    24    11    12 1   
    25    11    16 1   
    26    11    29 1   
    27    12    13 2   
    28    12    30 1   
    29    13    14 1   
    30    13    31 1   
    31    14    15 1   
    32    14    32 1   
    33    14    33 1   
    34    15    16 1   
    35    15    34 1   
    36    15    35 1   
    37    16    36 1   
    38    16    37 1   
    39    17    38 1   
    40    18    19 2   
    41    18    39 1   
    42    20    40 1   
    43    20    41 1   
@<TRIPOS>SUBSTRUCTURE
     1 SA1         1 TEMP              0 ****  ****    0 ROOT
