@<TRIPOS>MOLECULE
SA1
   41    43     1     0     0
SMALL
bcc


@<TRIPOS>ATOM
      1 C1           3.7600     0.9510    -0.3310 c5         1 SA1       0.130400
      2 O2           2.5540     1.0440    -1.0790 os         1 SA1      -0.428600
      3 C3           1.7530    -0.1280    -0.9380 c5         1 SA1       0.167800
      4 C4           1.5470    -0.7020    -2.3270 c3         1 SA1      -0.088100
      5 C5           2.5170    -1.0110     0.0520 c5         1 SA1      -0.177700
      6 C6           1.9290    -0.6630     1.4070 c          1 SA1       0.709500
      7 O7           2.3750    -1.0030     2.4870 o          1 SA1      -0.619500
      8 N8           0.8440     0.1120     1.2100 ns         1 SA1      -0.569900
      9 C9           0.4460     0.2890    -0.1590 c5         1 SA1      -0.044600
     10 C10         -0.7610    -0.6250    -0.5050 c3         1 SA1       0.153100
     11 C11         -2.0570    -0.3780     0.2940 c6         1 SA1      -0.057500
     12 C12         -3.1020    -1.3610    -0.1760 c2         1 SA1      -0.179200
     13 C13         -4.3750    -1.0510    -0.4080 c2         1 SA1      -0.156200
     14 C14         -4.9590     0.3060    -0.1750 c6         1 SA1      -0.047200
     15 C15         -4.0310     1.1550     0.6790 c6         1 SA1      -0.071400
     16 C16         -2.5890     1.0530     0.1970 c6         1 SA1      -0.076400
     17 O17         -0.3530    -1.9660    -0.3550 oh         1 SA1      -0.594800
     18 C18          0.2180     1.7440    -0.5060 c          1 SA1       0.601900
     19 O19          0.3720     2.6570     0.2610 o          1 SA1      -0.499100
     20 C20          3.9570    -0.5320    -0.0690 c5         1 SA1      -0.098400
     21 H11A         4.5690     1.3960    -0.9110 h1         1 SA1       0.056700
     22 H12A         3.6730     1.5140     0.6060 h1         1 SA1       0.056700
     23 H41          2.5190    -0.9190    -2.7720 hc         1 SA1       0.053033
     24 H42          0.9740    -1.6250    -2.3200 hc         1 SA1       0.053033
     25 H43          1.0420     0.0120    -2.9790 hc         1 SA1       0.053033
     26 H5           2.4030    -2.0790    -0.1410 hc         1 SA1       0.105700
     27 HN8          0.3100     0.4770     1.9860 hn         1 SA1       0.338500
     28 H10         -0.9910    -0.4870    -1.5660 h1         1 SA1       0.082700
     29 H11         -1.8360    -0.5920     1.3510 hc         1 SA1       0.055700
     30 H12         -2.7800    -2.3820    -0.3450 ha         1 SA1       0.133000
     31 H13         -5.0410    -1.8240    -0.7780 ha         1 SA1       0.124000
     32 H141        -5.9380     0.2090     0.3010 hc         1 SA1       0.050200
     33 H142        -5.1490     0.7950    -1.1380 hc         1 SA1       0.050200
     34 H151        -4.0860     0.8190     1.7190 hc         1 SA1       0.045200
     35 H152        -4.3500     2.1980     0.6710 hc         1 SA1       0.045200
     36 H161        -1.9780     1.7310     0.7910 hc         1 SA1       0.045700
     37 H162        -2.5380     1.3960    -0.8430 hc         1 SA1       0.045700
     38 HO17        -0.3760    -2.1970     0.5800 ho         1 SA1       0.412000
     39 H18         -0.0980     1.9110    -1.5500 h4         1 SA1       0.000200
     40 H201         4.4460    -1.0220    -0.9120 hc         1 SA1       0.069700
     41 H202         4.5480    -0.7320     0.8240 hc         1 SA1       0.069700
@<TRIPOS>BOND
     1     1     2 1   
     2     1    20 1   
     3     1    21 1   
     4     1    22 1   
     5     2     3 1   
     6     3     4 1   
     7     3     5 1   
     8     3     9 1   
     9     4    23 1   
    10     4    24 1   
    11     4    25 1   
    12     5     6 1   
    13     5    20 1   
    14     5    26 1   
    15     6     7 2   
    16     6     8 1   
    17     8     9 1   
    18     8    27 1   
    19     9    10 1   
    20     9    18 1   
    21    10    11 1   
    22    10    17 1   
    23    10    28 1   
    24    11    12 1   
    25    11    16 1   
    26    11    29 1   
    27    12    13 2   
    28    12    30 1   
    29    13    14 1   
    30    13    31 1   
    31    14    15 1   
    32    14    32 1   
    33    14    33 1   
    34    15    16 1   
    35    15    34 1   
    36    15    35 1   
    37    16    36 1   
    38    16    37 1   
    39    17    38 1   
    40    18    19 2   
    41    18    39 1   
    42    20    40 1   
    43    20    41 1   
@<TRIPOS>SUBSTRUCTURE
     1 SA1         1 TEMP              0 ****  ****    0 ROOT
