@<TRIPOS>MOLECULE
SA2
   41    40     1     0     0
SMALL
bcc


@<TRIPOS>ATOM
      1 O23          8.3480    -0.8560     0.6630 o          1 SA2      -0.853300
      2 C20          7.4250    -0.2470     0.0830 c          1 SA2       0.927600
      3 O22          7.5550     0.6500    -0.7730 o          1 SA2      -0.853300
      4 C19          5.9960    -0.6580     0.4830 c3         1 SA2      -0.206400
      5 C18          4.8720     0.0730    -0.2330 c3         1 SA2      -0.048400
      6 C17          3.5120    -0.3950     0.2590 c3         1 SA2      -0.139400
      7 C16          2.3500     0.2860    -0.4100 c          1 SA2       0.644100
      8 O24          2.4220     1.0090    -1.3740 o          1 SA2      -0.552000
      9 O15          1.2040    -0.0170     0.1870 os         1 SA2      -0.419900
     10 C14          0.0090     0.5440    -0.3450 c3         1 SA2       0.147400
     11 C2          -1.1770     0.1450     0.5240 c3         1 SA2       0.062300
     12 S1          -1.6010    -1.6540     0.3020 s4         1 SA2       0.409700
     13 O13         -1.8650    -1.5380    -1.3240 oh         1 SA2      -0.580800
     14 O12         -0.3500    -2.4230     0.5040 o          1 SA2      -0.499200
     15 C21         -0.8860     0.2750     2.0180 c3         1 SA2      -0.076100
     16 C3          -2.4170     0.9760     0.0910 c3         1 SA2       0.073500
     17 C9          -2.3460     2.4230     0.6720 c          1 SA2       0.931600
     18 O10         -1.5710     3.2040     0.0950 o          1 SA2      -0.807800
     19 O11         -3.0600     2.6470     1.6620 o          1 SA2      -0.807800
     20 N4          -3.6460     0.3390     0.5050 nu         1 SA2      -0.715000
     21 C5          -4.5840    -0.0970    -0.3320 c2         1 SA2       0.184000
     22 C6          -5.8230    -0.5580     0.0080 ce         1 SA2      -0.501200
     23 C7          -6.6910    -1.0010    -1.0340 c          1 SA2       0.602100
     24 O8          -7.8250    -1.4410    -0.8950 o          1 SA2      -0.617100
     25 H191         5.8950    -0.5210     1.5660 hc         1 SA2       0.013700
     26 H192         5.8940    -1.7380     0.3250 hc         1 SA2       0.013700
     27 H181         4.9520    -0.0870    -1.3100 hc         1 SA2       0.052700
     28 H182         4.9700     1.1490    -0.0740 hc         1 SA2       0.052700
     29 H171         3.4210    -0.2530     1.3400 hc         1 SA2       0.058700
     30 H172         3.3970    -1.4730     0.1010 hc         1 SA2       0.058700
     31 H141        -0.1370     0.2280    -1.3800 h1         1 SA2       0.076200
     32 H142         0.0700     1.6340    -0.3420 h1         1 SA2       0.076200
     33 HO13        -2.4860    -2.2330    -1.5870 ho         1 SA2       0.420000
     34 H211        -0.5070     1.2720     2.2450 hc         1 SA2       0.048367
     35 H212        -1.7820     0.1180     2.6190 hc         1 SA2       0.048367
     36 H213        -0.1350    -0.4400     2.3480 hc         1 SA2       0.048367
     37 H3          -2.4280     1.0400    -0.9990 h1         1 SA2       0.067700
     38 HN4         -3.9050     0.4900     1.4700 hn         1 SA2       0.450800
     39 H52         -4.3040    -0.0790    -1.3810 h4         1 SA2       0.128000
     40 H62         -6.1480    -0.5970     1.0420 ha         1 SA2       0.140000
     41 H7          -6.2530    -0.9200    -2.0490 h4         1 SA2      -0.058800
@<TRIPOS>BOND
     1     1     2 1   
     2     2     3 1   
     3     2     4 1   
     4     4     5 1   
     5     4    25 1   
     6     4    26 1   
     7     5     6 1   
     8     5    27 1   
     9     5    28 1   
    10     6     7 1   
    11     6    29 1   
    12     6    30 1   
    13     7     8 2   
    14     7     9 1   
    15     9    10 1   
    16    10    11 1   
    17    10    31 1   
    18    10    32 1   
    19    11    12 1   
    20    11    15 1   
    21    11    16 1   
    22    12    13 1   
    23    12    14 2   
    24    13    33 1   
    25    15    34 1   
    26    15    35 1   
    27    15    36 1   
    28    16    17 1   
    29    16    20 1   
    30    16    37 1   
    31    17    18 1   
    32    17    19 1   
    33    20    21 1   
    34    20    38 1   
    35    21    22 2   
    36    21    39 1   
    37    22    23 1   
    38    22    40 1   
    39    23    24 2   
    40    23    41 1   
@<TRIPOS>SUBSTRUCTURE
     1 SA2         1 TEMP              0 ****  ****    0 ROOT
