@<TRIPOS>MOLECULE
SA2
   41    40     1     0     0
SMALL
No Charge or Current Charge


@<TRIPOS>ATOM
      1 O23          7.4700     1.4110     0.5500 o          1 SA2      -0.748000
      2 C20          6.6560     0.9270     1.3210 c          1 SA2       0.717000
      3 O22          6.3850     1.4100     2.4090 o          1 SA2      -0.748000
      4 C19          5.8820    -0.3250     0.8680 c3         1 SA2      -0.206400
      5 C18          4.5930     0.0870     0.1150 c3         1 SA2      -0.048400
      6 C17          3.7670    -1.1240    -0.3800 c3         1 SA2      -0.139400
      7 C16          2.5030    -0.6700    -1.1150 c          1 SA2       0.595100
      8 O24          2.4770    -0.3710    -2.3020 o          1 SA2      -0.503000
      9 O15          1.4280    -0.5830    -0.2720 os         1 SA2      -0.443100
     10 C14          0.1670    -0.1490    -0.8230 c3         1 SA2       0.170600
     11 C2          -0.9510    -0.1730     0.2720 c3         1 SA2       0.062300
     12 S1          -1.4490    -1.9640     0.6250 s4         1 SA2       0.436500
     13 O13         -2.2800    -2.1310    -0.8380 oh         1 SA2      -0.619800
     14 O12         -0.2200    -2.8440     0.5990 o          1 SA2      -0.526000
     15 C21         -0.4210     0.4010     1.6210 c3         1 SA2      -0.076100
     16 C3          -2.1930     0.6530    -0.2500 c3         1 SA2       0.073500
     17 C9          -1.9500     2.2110    -0.2110 c          1 SA2       0.721000
     18 O10         -1.5480     2.7530    -1.2310 o          1 SA2      -0.702500
     19 O11         -2.2840     2.8370     0.7890 o          1 SA2      -0.702500
     20 N4          -3.4820     0.2410     0.4060 nu         1 SA2      -0.770200
     21 C5          -4.6850     0.1790    -0.2780 c2         1 SA2       0.134000
     22 C6          -5.7760    -0.1220     0.4380 ce         1 SA2      -0.551200
     23 C7          -7.1230    -0.2180    -0.1650 c          1 SA2       0.602100
     24 O8          -8.1150    -0.4950     0.4940 o          1 SA2      -0.617100
     25 H191         5.5490    -0.9060     1.7370 hc         1 SA2       0.013700
     26 H192         6.4760    -0.9050     0.1510 hc         1 SA2       0.013700
     27 H181         4.8620     0.7140    -0.7450 hc         1 SA2       0.052700
     28 H182         3.9700     0.7040     0.7750 hc         1 SA2       0.052700
     29 H171         3.4780    -1.7080     0.5020 hc         1 SA2       0.058700
     30 H172         4.3820    -1.7250    -1.0580 hc         1 SA2       0.058700
     31 H141        -0.1320    -0.7890    -1.6650 h1         1 SA2       0.076200
     32 H142         0.2760     0.8710    -1.2120 h1         1 SA2       0.076200
     33 HO13        -3.0350    -1.5120    -0.7160 ho         1 SA2       0.459000
     34 H211         0.0370     1.3880     1.4850 hc         1 SA2       0.048367
     35 H212        -1.2320     0.4940     2.3520 hc         1 SA2       0.048367
     36 H213         0.3400    -0.2580     2.0590 hc         1 SA2       0.048367
     37 H3          -2.2900     0.4210    -1.3200 h1         1 SA2       0.067700
     38 HN4         -3.5710     0.5060     1.3920 hn         1 SA2       0.506000
     39 H52         -4.6790     0.3790    -1.3570 h4         1 SA2       0.178000
     40 H62         -5.7280    -0.3170     1.5070 ha         1 SA2       0.190000
     41 H7          -7.1890    -0.0230    -1.2590 h4         1 SA2      -0.058800
@<TRIPOS>BOND
     1     1     2 1   
     2     2     3 1   
     3     2     4 1   
     4     4     5 1   
     5     4    25 1   
     6     4    26 1   
     7     5     6 1   
     8     5    27 1   
     9     5    28 1   
    10     6     7 1   
    11     6    29 1   
    12     6    30 1   
    13     7     8 2   
    14     7     9 1   
    15     9    10 1   
    16    10    11 1   
    17    10    31 1   
    18    10    32 1   
    19    11    12 1   
    20    11    15 1   
    21    11    16 1   
    22    12    13 1   
    23    12    14 2   
    24    13    33 1   
    25    15    34 1   
    26    15    35 1   
    27    15    36 1   
    28    16    17 1   
    29    16    20 1   
    30    16    37 1   
    31    17    18 1   
    32    17    19 1   
    33    20    21 1   
    34    20    38 1   
    35    21    22 2   
    36    21    39 1   
    37    22    23 1   
    38    22    40 1   
    39    23    24 2   
    40    23    41 1   
@<TRIPOS>SUBSTRUCTURE
     1 SA2         1 TEMP              0 ****  ****    0 ROOT
