@<TRIPOS>MOLECULE
SA3
   59    65     1     0     0
SMALL
bcc


@<TRIPOS>ATOM
      1 O1          20.3770   -10.0830    27.2520 oh         1 SA3      -0.239000
      2 C6          20.7680    -8.8030    27.3500 ca         1 SA3       0.113000
      3 C5          19.7910    -7.8150    27.1790 ca         1 SA3      -0.163000
      4 C4          20.1110    -6.4720    27.2470 ca         1 SA3      -0.037000
      5 C3          21.4280    -6.0990    27.5070 cp         1 SA3      -0.086000
      6 C2          22.3630    -7.1040    27.6800 ca         1 SA3       0.018000
      7 N9          23.6910    -6.5560    27.9690 nx         1 SA3       0.138000
      8 C1          22.0930    -8.4450    27.5970 ca         1 SA3      -0.186000
      9 C11         22.1260    -4.8270    27.6170 cq         1 SA3       0.075000
     10 C15         21.7400    -3.4970    27.5050 ca         1 SA3      -0.156000
     11 C18         20.4220    -2.8850    27.2510 c2         1 SA3       0.383000
     12 O37         19.3460    -3.4090    27.0840 o          1 SA3      -0.307000
     13 N17         20.6410    -1.5200    27.2350 ns         1 SA3      -0.401000
     14 C14         22.6730    -2.4670    27.6300 ca         1 SA3      -0.060000
     15 C16         21.9570    -1.1800    27.4540 c2         1 SA3       0.371000
     16 O38         22.3950    -0.0560    27.4870 o          1 SA3      -0.291000
     17 C13         24.0110    -2.7190    27.8690 cp         1 SA3      -0.012000
     18 C21         25.2110    -1.9450    28.0370 cp         1 SA3      -0.139000
     19 C20         26.2480    -2.8760    28.2510 ca         1 SA3       0.094000
     20 N19         25.7390    -4.1440    28.2240 na         1 SA3      -0.213000
     21 C12         24.4100    -4.0900    27.9940 ca         1 SA3       0.103000
     22 C10         23.4710    -5.0990    27.8760 ca         1 SA3      -0.137000
     23 C25         25.5270    -0.5840    28.0290 ca         1 SA3      -0.017000
     24 C24         26.8310    -0.1880    28.2280 ca         1 SA3      -0.197000
     25 C23         27.8500    -1.1370    28.4380 ca         1 SA3       0.136000
     26 C22         27.5690    -2.4950    28.4510 ca         1 SA3      -0.265000
     27 O2          29.0920    -0.6580    28.6230 oh         1 SA3      -0.243000
     28 C31         24.7800    -7.2320    27.1590 c2         1 SA3      -0.269000
     29 C32         25.9820    -7.5900    27.9480 c6         1 SA3       0.020000
     30 O32         26.7110    -6.5500    28.6930 oh         1 SA3      -0.375000
     31 C33         26.9920    -8.2150    26.9670 c6         1 SA3       0.052000
     32 O33         26.5750    -9.5330    26.6890 oh         1 SA3      -0.316000
     33 C34         27.1510    -7.3870    25.6810 c6         1 SA3      -0.020000
     34 O34         27.9730    -6.2880    26.0150 oh         1 SA3      -0.320000
     35 C35         25.8070    -6.9080    25.1140 c6         1 SA3       0.049000
     36 C36         25.0150    -7.9900    24.3810 c3         1 SA3      -0.040000
     37 O36         25.7120    -8.2890    23.1850 oh         1 SA3      -0.344000
     38 O5          25.0570    -6.2940    26.1220 os         1 SA3      -0.267000
     39 HO1         21.1220   -10.6810    27.3850 ho         1 SA3       0.234000
     40 H5          18.7710    -8.1160    26.9770 ha         1 SA3       0.158000
     41 H4          19.3420    -5.7300    27.0970 ha         1 SA3       0.176000
     42 H1          22.8930    -9.1700    27.6790 ha         1 SA3       0.174000
     43 H17         19.9080    -0.8420    27.0790 hn         1 SA3       0.262000
     44 H19         26.2590    -5.0340    28.3550 hn         1 SA3       0.320000
     45 H25         24.7610     0.1600    27.8720 ha         1 SA3       0.162000
     46 H24         27.0860     0.8640    28.2260 ha         1 SA3       0.151000
     47 H22         28.3490    -3.2320    28.6080 ha         1 SA3       0.148000
     48 HO2         29.7170    -1.3800    28.7620 ho         1 SA3       0.228000
     49 H31         23.8880    -6.7700    28.9530 hn         1 SA3       0.201000
     50 H32         25.7120    -8.3560    28.6830 h1         1 SA3       0.082000
     51 H6          26.6390    -6.7410    29.6330 ho         1 SA3       0.196000
     52 H33         27.9710    -8.2300    27.4670 h1         1 SA3       0.088000
     53 H3          27.2690    -9.9580    26.1750 ho         1 SA3       0.203000
     54 H34         27.6460    -8.0190    24.9270 h1         1 SA3       0.083000
     55 H2          28.0130    -5.7000    25.2550 ho         1 SA3       0.206000
     56 H35         26.0160    -6.1200    24.3760 h1         1 SA3       0.106000
     57 H361        24.8840    -8.8710    25.0090 h1         1 SA3       0.086000
     58 H362        24.0140    -7.5870    24.1720 h1         1 SA3       0.086000
     59 H36         25.3320    -9.0880    22.8110 ho         1 SA3       0.202000
@<TRIPOS>BOND
     1     1     2 1   
     2     1    39 1   
     3     2     3 1   
     4     2     8 1   
     5     3     4 1   
     6     3    40 1   
     7     4     5 1   
     8     4    41 1   
     9     5     6 1   
    10     5     9 1   
    11     6     7 1   
    12     6     8 1   
    13     7    22 1   
    14     7    28 1   
    15     7    49 1   
    16     8    42 1   
    17     9    10 1   
    18     9    22 1   
    19    10    11 1   
    20    10    14 1   
    21    11    12 1   
    22    11    13 1   
    23    13    15 1   
    24    13    43 1   
    25    14    15 1   
    26    14    17 1   
    27    15    16 1   
    28    17    18 1   
    29    17    21 1   
    30    18    19 1   
    31    18    23 1   
    32    19    20 1   
    33    19    26 1   
    34    20    21 1   
    35    20    44 1   
    36    21    22 1   
    37    23    24 1   
    38    23    45 1   
    39    24    25 1   
    40    24    46 1   
    41    25    26 1   
    42    25    27 1   
    43    26    47 1   
    44    27    48 1   
    45    28    29 1   
    46    28    38 1   
    47    29    30 1   
    48    29    31 1   
    49    29    50 1   
    50    30    51 1   
    51    31    32 1   
    52    31    33 1   
    53    31    52 1   
    54    32    53 1   
    55    33    34 1   
    56    33    35 1   
    57    33    54 1   
    58    34    55 1   
    59    35    36 1   
    60    35    38 1   
    61    35    56 1   
    62    36    37 1   
    63    36    57 1   
    64    36    58 1   
    65    37    59 1   
@<TRIPOS>SUBSTRUCTURE
     1 SA3         1 TEMP              0 ****  ****    0 ROOT
