@<TRIPOS>MOLECULE
SA3
   59    65     1     0     0
SMALL
No Charge or Current Charge


@<TRIPOS>ATOM
      1 O1          20.4190   -10.1420    27.3530 oh         1 SA3      -0.239000
      2 C6          20.7610    -8.8220    27.3850 ca         1 SA3       0.113000
      3 C5          19.8140    -7.8440    27.0200 ca         1 SA3      -0.163000
      4 C4          20.1450    -6.4720    27.0410 ca         1 SA3      -0.037000
      5 C3          21.4410    -6.0720    27.4450 cp         1 SA3      -0.086000
      6 C2          22.3680    -7.0740    27.7780 ca         1 SA3       0.018000
      7 N9          23.7090    -6.4810    28.1190 nx         1 SA3       0.138000
      8 C1          22.0590    -8.4400    27.7660 ca         1 SA3      -0.186000
      9 C11         22.1030    -4.7790    27.5700 cp         1 SA3       0.075000
     10 C15         21.7370    -3.4180    27.4060 ca         1 SA3      -0.156000
     11 C18         20.4810    -2.9410    27.1120 c          1 SA3       0.383000
     12 O37         19.4320    -3.4390    27.4980 o          1 SA3      -0.307000
     13 N17         20.6780    -1.5650    27.0580 ns         1 SA3      -0.401000
     14 C14         22.6480    -2.3580    27.5480 ca         1 SA3      -0.060000
     15 C16         21.9860    -1.1720    27.3270 c          1 SA3       0.371000
     16 O38         22.2760    -0.0900    27.8210 o          1 SA3      -0.291000
     17 C13         23.9980    -2.6260    27.8820 cp         1 SA3      -0.012000
     18 C21         25.2130    -1.8210    28.0650 cp         1 SA3      -0.139000
     19 C20         26.2570    -2.6940    28.3790 ca         1 SA3       0.094000
     20 N19         25.7120    -3.9800    28.3790 na         1 SA3      -0.213000
     21 C12         24.3480    -3.9640    28.0860 ca         1 SA3       0.103000
     22 C10         23.4340    -5.0150    27.9420 ca         1 SA3      -0.137000
     23 C25         25.4800    -0.4400    27.9500 ca         1 SA3      -0.017000
     24 C24         26.8000     0.0110    28.1800 ca         1 SA3      -0.197000
     25 C23         27.8340    -0.8970    28.5080 ca         1 SA3       0.136000
     26 C22         27.5690    -2.2760    28.6060 ca         1 SA3      -0.265000
     27 O2          29.0970    -0.4340    28.7200 oh         1 SA3      -0.243000
     28 C31         24.8300    -7.0060    27.2510 c2         1 SA3      -0.269000
     29 C32         25.9690    -7.7580    27.9390 c6         1 SA3       0.020000
     30 O32         26.6750    -6.8300    28.7660 oh         1 SA3      -0.375000
     31 C33         26.9330    -8.4430    26.9220 c6         1 SA3       0.052000
     32 O33         26.3620    -9.6830    26.4900 oh         1 SA3      -0.316000
     33 C34         27.2190    -7.5220    25.6930 c6         1 SA3      -0.020000
     34 O34         28.0480    -6.4230    26.0950 oh         1 SA3      -0.320000
     35 C35         25.8980    -6.9680    25.0620 c6         1 SA3       0.049000
     36 C36         25.0140    -8.0000    24.2980 c3         1 SA3      -0.040000
     37 O36         25.7390    -8.6740    23.2630 oh         1 SA3      -0.344000
     38 O5          25.0550    -6.3530    26.0590 os         1 SA3      -0.267000
     39 HO1         21.1900   -10.6700    27.6270 ho         1 SA3       0.234000
     40 H5          18.8170    -8.1520    26.7130 ha         1 SA3       0.158000
     41 H4          19.4020    -5.7440    26.7320 ha         1 SA3       0.176000
     42 H1          22.8120    -9.1790    28.0300 ha         1 SA3       0.174000
     43 H17         19.9100    -0.9300    27.2310 hn         1 SA3       0.262000
     44 H19         26.2500    -4.8340    28.4750 hn         1 SA3       0.320000
     45 H25         24.7050     0.2710    27.6820 ha         1 SA3       0.162000
     46 H24         27.0250     1.0720    28.0990 ha         1 SA3       0.151000
     47 H22         28.3520    -2.9910    28.8440 ha         1 SA3       0.148000
     48 HO2         29.6700    -1.1920    28.9280 ho         1 SA3       0.228000
     49 H31         23.8500    -6.6360    29.1330 hn         1 SA3       0.201000
     50 H32         25.5350    -8.5430    28.5770 h1         1 SA3       0.082000
     51 H6          27.4140    -7.3170    29.1740 ho         1 SA3       0.196000
     52 H33         27.8860    -8.6550    27.4280 h1         1 SA3       0.088000
     53 H3          26.9300   -10.0250    25.7760 ho         1 SA3       0.203000
     54 H34         27.7540    -8.1080    24.9320 h1         1 SA3       0.083000
     55 H2          28.1360    -5.8310    25.3260 ho         1 SA3       0.206000
     56 H35         26.1650    -6.1910    24.3320 h1         1 SA3       0.106000
     57 H361        24.5950    -8.7220    25.0080 h1         1 SA3       0.086000
     58 H362        24.1640    -7.4570    23.8640 h1         1 SA3       0.086000
     59 H36         25.1230    -9.2910    22.8260 ho         1 SA3       0.202000
@<TRIPOS>BOND
     1     1     2 1   
     2     1    39 1   
     3     2     3 ar  
     4     2     8 ar  
     5     3     4 ar  
     6     3    40 1   
     7     4     5 ar  
     8     4    41 1   
     9     5     6 ar  
    10     5     9 1   
    11     6     7 1   
    12     6     8 ar  
    13     7    22 1   
    14     7    28 1   
    15     7    49 1   
    16     8    42 1   
    17     9    10 ar  
    18     9    22 ar  
    19    10    11 1   
    20    10    14 ar  
    21    11    12 1   
    22    11    13 1   
    23    13    15 1   
    24    13    43 1   
    25    14    15 1   
    26    14    17 ar  
    27    15    16 1   
    28    17    18 1   
    29    17    21 ar  
    30    18    19 ar  
    31    18    23 ar  
    32    19    20 1   
    33    19    26 ar  
    34    20    21 1   
    35    20    44 1   
    36    21    22 ar  
    37    23    24 ar  
    38    23    45 1   
    39    24    25 ar  
    40    24    46 1   
    41    25    26 ar  
    42    25    27 1   
    43    26    47 1   
    44    27    48 1   
    45    28    29 1   
    46    28    38 1   
    47    29    30 1   
    48    29    31 1   
    49    29    50 1   
    50    30    51 1   
    51    31    32 1   
    52    31    33 1   
    53    31    52 1   
    54    32    53 1   
    55    33    34 1   
    56    33    35 1   
    57    33    54 1   
    58    34    55 1   
    59    35    36 1   
    60    35    38 1   
    61    35    56 1   
    62    36    37 1   
    63    36    57 1   
    64    36    58 1   
    65    37    59 1   
@<TRIPOS>SUBSTRUCTURE
     1 SA3         1 TEMP              0 ****  ****    0 ROOT
