@<TRIPOS>MOLECULE
SA6
   43    44     1     0     0
SMALL
abcg2


@<TRIPOS>ATOM
      1 C1           4.4860     1.8160     0.8900 c3         1 SA6      -0.092100
      2 C2           3.9340     0.4790     0.4100 c3         1 SA6      -0.053400
      3 C3           2.4080     0.4560     0.3430 c5         1 SA6      -0.178700
      4 C4           1.7690    -0.9420     0.3160 c5         1 SA6       0.200000
      5 C5           1.6870    -1.6200     1.6690 c3         1 SA6      -0.120100
      6 O6           2.4750    -1.7620    -0.6050 oh         1 SA6      -0.673000
      7 C7           1.8350     1.1070    -0.9000 c          1 SA6       0.578000
      8 O8           2.2800     2.0670    -1.5000 o          1 SA6      -0.545000
      9 N9           0.7210     0.4250    -1.2420 ns         1 SA6      -0.516900
     10 C10          0.3920    -0.6970    -0.3970 c5         1 SA6      -0.022600
     11 C11          0.0910    -1.9310    -1.2370 c          1 SA6       0.599900
     12 O12         -0.4040    -2.9300    -0.7840 o          1 SA6      -0.513100
     13 C13         -0.7840    -0.4090     0.5650 c3         1 SA6       0.176300
     14 O14         -0.4910     0.6540     1.4340 oh         1 SA6      -0.656000
     15 C15         -2.1570    -0.2070    -0.1210 c6         1 SA6      -0.052500
     16 C16         -3.2660    -0.5930     0.8630 c6         1 SA6      -0.072400
     17 C17         -4.6380    -0.1390     0.3880 c6         1 SA6      -0.071400
     18 C18         -4.6850     1.3780     0.2640 c6         1 SA6      -0.049200
     19 C19         -3.4720     1.9050    -0.4360 c2         1 SA6      -0.191200
     20 C20         -2.3580     1.1990    -0.6270 c2         1 SA6      -0.251200
     21 H1           5.5750     1.7860     0.9440 hc         1 SA6       0.040367
     22 H1A          4.2080     2.6280     0.2210 hc         1 SA6       0.040367
     23 H1B          4.1120     2.0570     1.8860 hc         1 SA6       0.040367
     24 H2           4.3630     0.2310    -0.5630 hc         1 SA6       0.042700
     25 H2A          4.2720    -0.3000     1.1000 hc         1 SA6       0.042700
     26 H3           2.0110     0.9970     1.2080 hc         1 SA6       0.094700
     27 H5           1.1670    -1.0100     2.4040 hc         1 SA6       0.056367
     28 H5A          1.1840    -2.5850     1.5970 hc         1 SA6       0.056367
     29 H5B          2.6930    -1.8030     2.0530 hc         1 SA6       0.056367
     30 HO6          3.2950    -2.0600    -0.1970 ho         1 SA6       0.456000
     31 HN9          0.1770     0.6870    -2.0520 hn         1 SA6       0.329500
     32 H11          0.3470    -1.8430    -2.3080 h4         1 SA6       0.010200
     33 H13         -0.8760    -1.2950     1.2000 h1         1 SA6       0.091700
     34 HO14        -0.6300     1.4880     0.9710 ho         1 SA6       0.454000
     35 H15         -2.2190    -0.8850    -0.9810 hc         1 SA6       0.060700
     36 H16         -3.2500    -1.6750     1.0120 hc         1 SA6       0.050700
     37 H16A        -3.0550    -0.1380     1.8360 hc         1 SA6       0.050700
     38 H17         -4.8580    -0.5920    -0.5840 hc         1 SA6       0.044200
     39 H17A        -5.4100    -0.4870     1.0770 hc         1 SA6       0.044200
     40 H18         -5.5820     1.6950    -0.2750 hc         1 SA6       0.050700
     41 H18A        -4.7640     1.8390     1.2550 hc         1 SA6       0.050700
     42 H19         -3.5220     2.9160    -0.8260 ha         1 SA6       0.173000
     43 H20         -1.5610     1.6660    -1.1950 ha         1 SA6       0.170000
@<TRIPOS>BOND
     1     1     2 1   
     2     1    21 1   
     3     1    22 1   
     4     1    23 1   
     5     2     3 1   
     6     2    24 1   
     7     2    25 1   
     8     3     4 1   
     9     3     7 1   
    10     3    26 1   
    11     4     5 1   
    12     4     6 1   
    13     4    10 1   
    14     5    27 1   
    15     5    28 1   
    16     5    29 1   
    17     6    30 1   
    18     7     8 2   
    19     7     9 1   
    20     9    10 1   
    21     9    31 1   
    22    10    11 1   
    23    10    13 1   
    24    11    12 2   
    25    11    32 1   
    26    13    14 1   
    27    13    15 1   
    28    13    33 1   
    29    14    34 1   
    30    15    16 1   
    31    15    20 1   
    32    15    35 1   
    33    16    17 1   
    34    16    36 1   
    35    16    37 1   
    36    17    18 1   
    37    17    38 1   
    38    17    39 1   
    39    18    19 1   
    40    18    40 1   
    41    18    41 1   
    42    19    20 2   
    43    19    42 1   
    44    20    43 1   
@<TRIPOS>SUBSTRUCTURE
     1 SA6         1 TEMP              0 ****  ****    0 ROOT
