@<TRIPOS>MOLECULE
SA6
   43    44     1     0     0
SMALL
No Charge or Current Charge


@<TRIPOS>ATOM
      1 C1           4.4730     1.9540     0.8300 c3         1 SA6      -0.092100
      2 C2           3.9710     0.5420     0.4600 c3         1 SA6      -0.053400
      3 C3           2.4210     0.4110     0.3380 c5         1 SA6      -0.178700
      4 C4           1.8430    -1.0400     0.2720 c5         1 SA6       0.200000
      5 C5           1.8190    -1.7750     1.6350 c3         1 SA6      -0.120100
      6 O6           2.6730    -1.8450    -0.5670 oh         1 SA6      -0.673000
      7 C7           1.8060     1.0960    -0.8930 c          1 SA6       0.578000
      8 O8           2.2390     2.0160    -1.5680 o          1 SA6      -0.545000
      9 N9           0.7470     0.3280    -1.2940 ns         1 SA6      -0.516900
     10 C10          0.4140    -0.7980    -0.3890 c5         1 SA6      -0.022600
     11 C11          0.1000    -2.0300    -1.3050 c          1 SA6       0.599900
     12 O12         -0.7380    -2.9020    -1.0880 o          1 SA6      -0.513100
     13 C13         -0.8010    -0.4950     0.5770 c3         1 SA6       0.176300
     14 O14         -0.4970     0.5870     1.4670 oh         1 SA6      -0.656000
     15 C15         -2.2070    -0.1960    -0.0660 c6         1 SA6      -0.052500
     16 C16         -3.3580    -0.5460     0.9220 c6         1 SA6      -0.072400
     17 C17         -4.7200    -0.0530     0.3860 c6         1 SA6      -0.071400
     18 C18         -4.7190     1.4860     0.2340 c6         1 SA6      -0.049200
     19 C19         -3.4410     1.9970    -0.4190 c2         1 SA6      -0.191200
     20 C20         -2.3270     1.2570    -0.5530 c2         1 SA6      -0.251200
     21 H1           5.5630     1.9510     0.9460 hc         1 SA6       0.040367
     22 H1A          4.2200     2.6850     0.0540 hc         1 SA6       0.040367
     23 H1B          4.0320     2.2870     1.7770 hc         1 SA6       0.040367
     24 H2           4.4520     0.2380    -0.4780 hc         1 SA6       0.042700
     25 H2A          4.3370    -0.1460     1.2320 hc         1 SA6       0.042700
     26 H3           1.9890     0.9060     1.2120 hc         1 SA6       0.094700
     27 H5           1.2890    -1.1970     2.4010 hc         1 SA6       0.056367
     28 H5A          1.3210    -2.7490     1.5510 hc         1 SA6       0.056367
     29 H5B          2.8310    -1.9530     2.0170 hc         1 SA6       0.056367
     30 HO6          3.5630    -1.8590    -0.1550 ho         1 SA6       0.456000
     31 HN9          0.2630     0.5810    -2.1490 hn         1 SA6       0.329500
     32 H11          0.6940    -2.0660    -2.2450 h4         1 SA6       0.010200
     33 H13         -0.9330    -1.4120     1.1690 h1         1 SA6       0.091700
     34 HO14        -1.1330     1.2980     1.2320 ho         1 SA6       0.454000
     35 H15         -2.3170    -0.8460    -0.9440 hc         1 SA6       0.060700
     36 H16         -3.3940    -1.6320     1.0840 hc         1 SA6       0.050700
     37 H16A        -3.1720    -0.0910     1.9040 hc         1 SA6       0.050700
     38 H17         -4.9230    -0.5210    -0.5870 hc         1 SA6       0.044200
     39 H17A        -5.5310    -0.3630     1.0590 hc         1 SA6       0.044200
     40 H18         -5.5900     1.7960    -0.3600 hc         1 SA6       0.050700
     41 H18A        -4.8310     1.9580     1.2200 hc         1 SA6       0.050700
     42 H19         -3.4720     3.0240    -0.7930 ha         1 SA6       0.173000
     43 H20         -1.4570     1.6900    -1.0490 ha         1 SA6       0.170000
@<TRIPOS>BOND
     1     1     2 1   
     2     1    21 1   
     3     1    22 1   
     4     1    23 1   
     5     2     3 1   
     6     2    24 1   
     7     2    25 1   
     8     3     4 1   
     9     3     7 1   
    10     3    26 1   
    11     4     5 1   
    12     4     6 1   
    13     4    10 1   
    14     5    27 1   
    15     5    28 1   
    16     5    29 1   
    17     6    30 1   
    18     7     8 2   
    19     7     9 1   
    20     9    10 1   
    21     9    31 1   
    22    10    11 1   
    23    10    13 1   
    24    11    12 2   
    25    11    32 1   
    26    13    14 1   
    27    13    15 1   
    28    13    33 1   
    29    14    34 1   
    30    15    16 1   
    31    15    20 1   
    32    15    35 1   
    33    16    17 1   
    34    16    36 1   
    35    16    37 1   
    36    17    18 1   
    37    17    38 1   
    38    17    39 1   
    39    18    19 1   
    40    18    40 1   
    41    18    41 1   
    42    19    20 2   
    43    19    42 1   
    44    20    43 1   
@<TRIPOS>SUBSTRUCTURE
     1 SA6         1 TEMP              0 ****  ****    0 ROOT
