@<TRIPOS>MOLECULE
SA8
   49    51     1     0     0
SMALL
No Charge or Current Charge


@<TRIPOS>ATOM
      1 N           -5.5200     1.0960     0.9490 n8         1 SA8      -0.991200
      2 CA          -4.1890     1.7500     0.6720 c3         1 SA8       0.019500
      3 C           -4.2350     3.2470     0.1460 c          1 SA8       0.725000
      4 OXT         -3.7510     4.1250     0.8490 o          1 SA8      -0.727500
      5 O           -4.8140     3.4790    -0.9090 o          1 SA8      -0.727500
      6 CB          -3.3370     0.8610    -0.2740 c3         1 SA8      -0.103400
      7 CG          -2.9310    -0.5040     0.3340 c3         1 SA8       0.155800
      8 ND          -1.9420    -1.2720    -0.4630 n3         1 SA8      -0.713600
      9 CE          -2.4450    -1.6650    -1.8050 c3         1 SA8       0.150100
     10 C5          -1.3830    -2.4210     0.3050 c3         1 SA8       0.143800
     11 C4          -0.1830    -3.1930    -0.3470 c5         1 SA8       0.162300
     12 O4           0.7690    -2.2890    -0.9670 os         1 SA8      -0.419000
     13 C3           0.6830    -3.9880     0.6810 c5         1 SA8       0.106300
     14 O3           1.5310    -4.9710     0.0740 oh         1 SA8      -0.708000
     15 C2           1.5490    -2.8330     1.2700 c5         1 SA8       0.079300
     16 O2           2.7620    -3.3560     1.8550 oh         1 SA8      -0.694000
     17 C1           1.7830    -1.9300    -0.0020 c5         1 SA8       0.325300
     18 N9           1.7940    -0.4760     0.1750 na         1 SA8      -0.306300
     19 C8           0.9050     0.2680     0.9600 cc         1 SA8       0.421700
     20 N7           1.2270     1.5770     0.9590 nd         1 SA8      -0.538100
     21 C7           2.3500     1.6320     0.1300 ca         1 SA8      -0.090600
     22 C6           3.1320     2.7430    -0.2510 ca         1 SA8       0.443900
     23 N6           2.8700     4.0080     0.1740 nv         1 SA8      -1.062900
     24 N1           4.1960     2.6000    -1.0570 nb         1 SA8      -0.315000
     25 C10          4.4590     1.3380    -1.4760 ca         1 SA8       0.163900
     26 N3           3.7640     0.2180    -1.1630 nb         1 SA8      -0.217000
     27 C9           2.7040     0.3970    -0.3510 ca         1 SA8       0.112500
     28 HN1         -6.0810     1.1130     0.0880 hn         1 SA8       0.374500
     29 HN2         -5.3790     0.0970     1.1350 hn         1 SA8       0.374500
     30 HA          -3.6550     1.7890     1.6330 h1         1 SA8       0.043700
     31 HB1         -2.4190     1.4060    -0.5260 hc         1 SA8       0.054700
     32 HB2         -3.8830     0.7120    -1.2130 hc         1 SA8       0.054700
     33 HG1         -3.8330    -1.1120     0.4890 h1         1 SA8       0.021200
     34 HG2         -2.5070    -0.3040     1.3280 h1         1 SA8       0.021200
     35 HE1         -1.6720    -2.1910    -2.3800 h1         1 SA8       0.031367
     36 HE2         -3.3170    -2.3270    -1.7170 h1         1 SA8       0.031367
     37 HE3         -2.7370    -0.7870    -2.3940 h1         1 SA8       0.031367
     38 H5'1        -1.0670    -2.0650     1.2920 h1         1 SA8       0.030700
     39 H5'2        -2.1790    -3.1530     0.4950 h1         1 SA8       0.030700
     40 H4          -0.5910    -3.8570    -1.1200 h1         1 SA8       0.094700
     41 H3           0.0580    -4.4530     1.4560 h1         1 SA8       0.052700
     42 H2           2.3780    -4.8740     0.5790 ho         1 SA8       0.518000
     43 H7           0.9750    -2.2880     2.0310 h1         1 SA8       0.062700
     44 H1           3.1720    -2.6360     2.3940 ho         1 SA8       0.509000
     45 H9           2.7610    -2.1810    -0.4320 h2         1 SA8       0.111700
     46 H8           0.0760    -0.1800     1.4930 h5         1 SA8       0.115800
     47 HN61         2.2170     4.1040     0.9470 hn         1 SA8       0.504500
     48 HN62         3.6140     4.6980     0.1160 hn         1 SA8       0.504500
     49 H6           5.3200     1.2110    -2.1310 h5         1 SA8       0.034100
@<TRIPOS>BOND
     1     1     2 1   
     2     1    28 1   
     3     1    29 1   
     4     2     3 1   
     5     2     6 1   
     6     2    30 1   
     7     3     4 1   
     8     3     5 1   
     9     6     7 1   
    10     6    31 1   
    11     6    32 1   
    12     7     8 1   
    13     7    33 1   
    14     7    34 1   
    15     8     9 1   
    16     8    10 1   
    17     9    35 1   
    18     9    36 1   
    19     9    37 1   
    20    10    11 1   
    21    10    38 1   
    22    10    39 1   
    23    11    12 1   
    24    11    13 1   
    25    11    40 1   
    26    12    17 1   
    27    13    14 1   
    28    13    15 1   
    29    13    41 1   
    30    14    42 1   
    31    15    16 1   
    32    15    17 1   
    33    15    43 1   
    34    16    44 1   
    35    17    18 1   
    36    17    45 1   
    37    18    19 1   
    38    18    27 1   
    39    19    20 2   
    40    19    46 1   
    41    20    21 1   
    42    21    22 ar  
    43    21    27 ar  
    44    22    23 1   
    45    22    24 ar  
    46    23    47 1   
    47    23    48 1   
    48    24    25 ar  
    49    25    26 ar  
    50    25    49 1   
    51    26    27 ar  
@<TRIPOS>SUBSTRUCTURE
     1 SA8         1 TEMP              0 ****  ****    0 ROOT
