@<TRIPOS>MOLECULE
SA8
   49    51     1     0     0
SMALL
abcg2


@<TRIPOS>ATOM
      1 N           -5.5330     1.0410     1.2510 n8         1 SA8      -0.991200
      2 CA          -4.2950     1.6430     0.7810 c3         1 SA8       0.019500
      3 C           -4.5820     2.9870     0.0760 c          1 SA8       0.725000
      4 OXT         -3.6580     3.8240     0.0800 o          1 SA8      -0.727500
      5 O           -5.6930     3.1090    -0.4780 o          1 SA8      -0.727500
      6 CB          -3.4740     0.7670    -0.1820 c3         1 SA8      -0.103400
      7 CG          -2.9560    -0.5040     0.4760 c3         1 SA8       0.155800
      8 ND          -2.0730    -1.2860    -0.3790 n3         1 SA8      -0.713600
      9 CE          -2.7910    -1.9080    -1.4740 c3         1 SA8       0.150100
     10 C5          -1.3280    -2.2470     0.4070 c3         1 SA8       0.143800
     11 C4          -0.2560    -3.0040    -0.3750 c5         1 SA8       0.162300
     12 O4           0.5500    -2.1420    -1.1810 os         1 SA8      -0.419000
     13 C3           0.7300    -3.6820     0.5620 c5         1 SA8       0.106300
     14 O3           1.3630    -4.7290    -0.1230 oh         1 SA8      -0.708000
     15 C2           1.7100    -2.5310     0.8320 c5         1 SA8       0.079300
     16 O2           2.9990    -2.9430     1.1770 oh         1 SA8      -0.694000
     17 C1           1.7300    -1.8060    -0.5240 c5         1 SA8       0.325300
     18 N9           1.8020    -0.3590    -0.3980 na         1 SA8      -0.306300
     19 C8           0.7510     0.5180    -0.3480 cc         1 SA8       0.421700
     20 N7           1.1250     1.7550    -0.1840 nd         1 SA8      -0.538100
     21 C7           2.4910     1.6940    -0.1220 ca         1 SA8      -0.090600
     22 C6           3.4860     2.6750     0.0420 ca         1 SA8       0.443900
     23 N6           3.2020     3.9740     0.1740 nv         1 SA8      -1.062900
     24 N1           4.7630     2.2800     0.0500 nb         1 SA8      -0.315000
     25 C10          5.0410     0.9870    -0.1010 ca         1 SA8       0.163900
     26 N3           4.2030    -0.0220    -0.2550 nb         1 SA8      -0.217000
     27 C9           2.9340     0.3860    -0.2570 ca         1 SA8       0.112500
     28 HN1         -6.1880     1.0130     0.4800 hn         1 SA8       0.374500
     29 HN2         -5.3800     0.0850     1.5440 hn         1 SA8       0.374500
     30 HA          -3.6650     1.8490     1.6540 h1         1 SA8       0.043700
     31 HB1         -2.6150     1.3410    -0.5430 hc         1 SA8       0.054700
     32 HB2         -4.0920     0.5360    -1.0550 hc         1 SA8       0.054700
     33 HG1         -3.7970    -1.1220     0.8350 h1         1 SA8       0.021200
     34 HG2         -2.3890    -0.2130     1.3660 h1         1 SA8       0.021200
     35 HE1         -2.1060    -2.4160    -2.1510 h1         1 SA8       0.031367
     36 HE2         -3.5370    -2.6430    -1.1340 h1         1 SA8       0.031367
     37 HE3         -3.3110    -1.1550    -2.0630 h1         1 SA8       0.031367
     38 H5'1        -0.8640    -1.7030     1.2360 h1         1 SA8       0.030700
     39 H5'2        -1.9790    -3.0090     0.8710 h1         1 SA8       0.030700
     40 H4          -0.7230    -3.7290    -1.0460 h1         1 SA8       0.094700
     41 H3           0.2460    -4.0290     1.4840 h1         1 SA8       0.052700
     42 H2           2.2190    -4.8820     0.2940 ho         1 SA8       0.518000
     43 H7           1.2860    -1.8710     1.5970 h1         1 SA8       0.062700
     44 H1           3.0380    -3.0740     2.1300 ho         1 SA8       0.509000
     45 H9           2.6040    -2.1160    -1.1060 h2         1 SA8       0.111700
     46 H8          -0.2720     0.1770    -0.4670 h5         1 SA8       0.115800
     47 HN61         2.2510     4.2840     0.2780 hn         1 SA8       0.504500
     48 HN62         3.9350     4.6270     0.3930 hn         1 SA8       0.504500
     49 H6           6.0960     0.7350    -0.0920 h5         1 SA8       0.034100
@<TRIPOS>BOND
     1     1     2 1   
     2     1    28 1   
     3     1    29 1   
     4     2     3 1   
     5     2     6 1   
     6     2    30 1   
     7     3     4 1   
     8     3     5 1   
     9     6     7 1   
    10     6    31 1   
    11     6    32 1   
    12     7     8 1   
    13     7    33 1   
    14     7    34 1   
    15     8     9 1   
    16     8    10 1   
    17     9    35 1   
    18     9    36 1   
    19     9    37 1   
    20    10    11 1   
    21    10    38 1   
    22    10    39 1   
    23    11    12 1   
    24    11    13 1   
    25    11    40 1   
    26    12    17 1   
    27    13    14 1   
    28    13    15 1   
    29    13    41 1   
    30    14    42 1   
    31    15    16 1   
    32    15    17 1   
    33    15    43 1   
    34    16    44 1   
    35    17    18 1   
    36    17    45 1   
    37    18    19 1   
    38    18    27 1   
    39    19    20 2   
    40    19    46 1   
    41    20    21 1   
    42    21    22 ar  
    43    21    27 ar  
    44    22    23 1   
    45    22    24 ar  
    46    23    47 1   
    47    23    48 1   
    48    24    25 ar  
    49    25    26 ar  
    50    25    49 1   
    51    26    27 ar  
@<TRIPOS>SUBSTRUCTURE
     1 SA8         1 TEMP              0 ****  ****    0 ROOT
