@<TRIPOS>MOLECULE
SA9
   17    17     1     0     0
SMALL
No Charge or Current Charge


@<TRIPOS>ATOM
      1 OAA          2.3770    -1.0060    -0.9500 oh         1 SA9      -0.650000
      2 CAC         -2.3060     0.8110    -0.0030 ca         1 SA9      -0.072000
      3 CAD         -1.3650     1.6730     0.5830 ca         1 SA9      -0.151000
      4 CAE         -1.8830    -0.4130    -0.5470 ca         1 SA9      -0.148000
      5 CAF         -0.0070     1.3130     0.6280 ca         1 SA9      -0.045000
      6 CAG          1.9130    -0.2820     0.1960 c3         1 SA9       0.215900
      7 CAH         -0.5270    -0.7720    -0.5070 ca         1 SA9       0.141100
      8 CAI          0.4300     0.0870     0.0820 ca         1 SA9      -0.178300
      9 HOAA         3.3560    -1.0580    -0.8700 ho         1 SA9       0.447000
     10 HOAB         0.8540    -1.8820    -1.1140 ho         1 SA9       0.462000
     11 HAC         -3.3570     1.0890    -0.0360 ha         1 SA9       0.114000
     12 HAD         -1.6890     2.6210     1.0070 ha         1 SA9       0.116000
     13 HAE         -2.6080    -1.0820    -1.0050 ha         1 SA9       0.128000
     14 HAF          0.7080     1.9880     1.0960 ha         1 SA9       0.130000
     15 HAG          2.0570    -0.8830     1.1030 h1         1 SA9       0.016700
     16 HAGA         2.5030     0.6360     0.3160 h1         1 SA9       0.016700
     17 OAB         -0.1330    -1.9500    -1.0570 oh         1 SA9      -0.543100
@<TRIPOS>BOND
     1     1     6 1   
     2     1     9 1   
     3     2     3 ar  
     4     2     4 ar  
     5     2    11 1   
     6     3     5 ar  
     7     3    12 1   
     8     4     7 ar  
     9     4    13 1   
    10     5     8 ar  
    11     5    14 1   
    12     6     8 1   
    13     6    15 1   
    14     6    16 1   
    15     7     8 ar  
    16     7    17 1   
    17    10    17 1   
@<TRIPOS>SUBSTRUCTURE
     1 SA9         1 TEMP              0 ****  ****    0 ROOT
