@<TRIPOS>MOLECULE
SA9
   17    17     1     0     0
SMALL
abcg2


@<TRIPOS>ATOM
      1 OAA          2.7310     0.6230    -0.1250 oh         1 SA9      -0.650000
      2 CAC         -2.2420     0.8450     0.0150 ca         1 SA9      -0.072000
      3 CAD         -1.2220     1.7840     0.0060 ca         1 SA9      -0.151000
      4 CAE         -1.9400    -0.5080    -0.0250 ca         1 SA9      -0.148000
      5 CAF          0.1000     1.3600    -0.0370 ca         1 SA9      -0.045000
      6 CAG          1.8550    -0.4690    -0.1010 c3         1 SA9       0.215900
      7 CAH         -0.6150    -0.9270    -0.0700 ca         1 SA9       0.141100
      8 CAI          0.4270     0.0090    -0.0730 ca         1 SA9      -0.178300
      9 HOAA         3.6300     0.2830    -0.1280 ho         1 SA9       0.447000
     10 HOAB         0.5230    -2.4810    -0.2540 ho         1 SA9       0.462000
     11 HAC         -3.2780     1.1590     0.0500 ha         1 SA9       0.114000
     12 HAD         -1.4480     2.8420     0.0340 ha         1 SA9       0.116000
     13 HAE         -2.7290    -1.2500    -0.0240 ha         1 SA9       0.128000
     14 HAF          0.8900     2.0980    -0.0400 ha         1 SA9       0.130000
     15 HAG          2.0040    -1.1110    -0.9830 h1         1 SA9       0.016700
     16 HAGA         2.0360    -1.1050     0.7790 h1         1 SA9       0.016700
     17 OAB         -0.4010    -2.2630    -0.1010 oh         1 SA9      -0.543100
@<TRIPOS>BOND
     1     1     6 1   
     2     1     9 1   
     3     2     3 ar  
     4     2     4 ar  
     5     2    11 1   
     6     3     5 ar  
     7     3    12 1   
     8     4     7 ar  
     9     4    13 1   
    10     5     8 ar  
    11     5    14 1   
    12     6     8 1   
    13     6    15 1   
    14     6    16 1   
    15     7     8 ar  
    16     7    17 1   
    17    10    17 1   
@<TRIPOS>SUBSTRUCTURE
     1 SA9         1 TEMP              0 ****  ****    0 ROOT
