@<TRIPOS>MOLECULE
SAB
   35    35     1     0     0
SMALL
abcg2


@<TRIPOS>ATOM
      1 C1          -0.7320     0.1820    -0.1790 ca         1 SAB      -0.095600
      2 C2          -1.6410    -0.0520    -1.2090 ca         1 SAB      -0.097000
      3 C3          -1.2070    -0.1650    -2.5160 ca         1 SAB      -0.019000
      4 C4           0.1460    -0.0210    -2.7940 ca         1 SAB      -0.251500
      5 C5           1.0660     0.2210    -1.7870 ca         1 SAB      -0.019000
      6 C6           0.6200     0.3220    -0.4780 ca         1 SAB      -0.097000
      7 C7          -1.2640     0.3250     1.2160 c          1 SAB       0.603700
      8 O7          -2.4010     0.7300     1.4120 o          1 SAB      -0.592100
      9 N           -0.4240    -0.0060     2.2040 ns         1 SAB      -0.500900
     10 C8          -0.7850     0.1010     3.6040 c3         1 SAB       0.102000
     11 C9           0.4330    -0.1140     4.4870 c3         1 SAB      -0.094400
     12 C10          0.0950     0.0290     5.9640 c3         1 SAB      -0.076400
     13 C11          1.3060    -0.1880     6.8600 c3         1 SAB       0.151800
     14 N4           0.9450    -0.0470     8.2620 n8         1 SAB      -0.996200
     15 S            0.6970    -0.1480    -4.4740 sy         1 SAB       1.125600
     16 O1S          2.1440    -0.3050    -4.4550 o          1 SAB      -0.542500
     17 O2S         -0.1020    -1.1460    -5.1690 o          1 SAB      -0.542500
     18 N3S          0.2150     1.3140    -5.0700 n8         1 SAB      -1.004100
     19 H2          -2.6950    -0.1530    -0.9890 ha         1 SAB       0.130500
     20 H3          -1.9210    -0.3570    -3.3060 ha         1 SAB       0.140000
     21 H5           2.1180     0.3380    -2.0040 ha         1 SAB       0.140000
     22 H6           1.3440     0.5370     0.2970 ha         1 SAB       0.130500
     23 HN           0.4360    -0.4810     1.9810 hn         1 SAB       0.316500
     24 H1'1        -1.5630    -0.6280     3.8530 h1         1 SAB       0.055700
     25 H1'2        -1.2070     1.0910     3.7890 h1         1 SAB       0.055700
     26 H2'1         1.2100     0.6050     4.2140 hc         1 SAB       0.042200
     27 H2'2         0.8450    -1.1110     4.3010 hc         1 SAB       0.042200
     28 H3'1        -0.6880    -0.6830     6.2400 hc         1 SAB       0.051700
     29 H3'2        -0.3130     1.0290     6.1470 hc         1 SAB       0.051700
     30 H4'1         2.1090     0.4930     6.5420 h1         1 SAB       0.026200
     31 H4'2         1.6870    -1.2010     6.7050 h1         1 SAB       0.026200
     32 HN41         1.7520    -0.2410     8.8410 hn         1 SAB       0.393500
     33 HN42         0.7030     0.9180     8.4490 hn         1 SAB       0.393500
     34 HN31         0.1370     1.2960    -6.0820 hn         1 SAB       0.475000
     35 HN32         0.8160     2.0770    -4.7760 hn         1 SAB       0.475000
@<TRIPOS>BOND
     1     1     2 ar  
     2     1     6 ar  
     3     1     7 1   
     4     2     3 ar  
     5     2    19 1   
     6     3     4 ar  
     7     3    20 1   
     8     4     5 ar  
     9     4    15 1   
    10     5     6 ar  
    11     5    21 1   
    12     6    22 1   
    13     7     8 2   
    14     7     9 1   
    15     9    10 1   
    16     9    23 1   
    17    10    11 1   
    18    10    24 1   
    19    10    25 1   
    20    11    12 1   
    21    11    26 1   
    22    11    27 1   
    23    12    13 1   
    24    12    28 1   
    25    12    29 1   
    26    13    14 1   
    27    13    30 1   
    28    13    31 1   
    29    14    32 1   
    30    14    33 1   
    31    15    16 2   
    32    15    17 2   
    33    15    18 1   
    34    18    34 1   
    35    18    35 1   
@<TRIPOS>SUBSTRUCTURE
     1 SAB         1 TEMP              0 ****  ****    0 ROOT
