@<TRIPOS>MOLECULE
SAB
   35    35     1     0     0
SMALL
No Charge or Current Charge


@<TRIPOS>ATOM
      1 C1          -0.8840     0.0130    -0.1990 ca         1 SAB      -0.095600
      2 C2          -1.7930     0.0330    -1.2820 ca         1 SAB      -0.097000
      3 C3          -1.3370     0.0200    -2.6120 ca         1 SAB      -0.019000
      4 C4           0.0440    -0.0140    -2.8850 ca         1 SAB      -0.251500
      5 C5           0.9620    -0.0310    -1.8170 ca         1 SAB      -0.019000
      6 C6           0.5030    -0.0190    -0.4870 ca         1 SAB      -0.097000
      7 C7          -1.4180     0.0270     1.2230 c          1 SAB       0.603700
      8 O7          -2.6160     0.0560     1.4710 o          1 SAB      -0.592100
      9 N           -0.4860     0.0060     2.2390 ns         1 SAB      -0.500900
     10 C8          -0.8180     0.0150     3.6630 c3         1 SAB       0.102000
     11 C9           0.4470    -0.0100     4.5410 c3         1 SAB      -0.094400
     12 C10          0.1310    -0.0010     6.0540 c3         1 SAB      -0.076400
     13 C11          1.3990    -0.0280     6.9310 c3         1 SAB       0.151800
     14 N4           1.0640    -0.0220     8.3670 n8         1 SAB      -0.996200
     15 S            0.6310    -0.0290    -4.5840 sy         1 SAB       1.125600
     16 O1S          2.0000    -0.5340    -4.6610 o          1 SAB      -0.542500
     17 O2S         -0.4180    -0.4790    -5.4970 o          1 SAB      -0.542500
     18 N3S          0.7890     1.5550    -4.9370 n8         1 SAB      -1.004100
     19 H2          -2.8650     0.0580    -1.0970 ha         1 SAB       0.130500
     20 H3          -2.0610     0.0380    -3.4250 ha         1 SAB       0.140000
     21 H5           2.0330    -0.0530    -2.0110 ha         1 SAB       0.140000
     22 H6           1.2450    -0.0330     0.3070 ha         1 SAB       0.130500
     23 HN           0.4890    -0.0180     1.9710 hn         1 SAB       0.316500
     24 H1'1        -1.4400    -0.8620     3.8880 h1         1 SAB       0.055700
     25 H1'2        -1.4030     0.9180     3.8850 h1         1 SAB       0.055700
     26 H2'1         1.0710     0.8600     4.2980 hc         1 SAB       0.042200
     27 H2'2         1.0340    -0.9060     4.3010 hc         1 SAB       0.042200
     28 H3'1        -0.4930    -0.8700     6.2950 hc         1 SAB       0.051700
     29 H3'2        -0.4570     0.8940     6.2920 hc         1 SAB       0.051700
     30 H4'1         2.0210     0.8510     6.7110 h1         1 SAB       0.026200
     31 H4'2         1.9830    -0.9320     6.7110 h1         1 SAB       0.026200
     32 HN41         1.9330     0.0180     8.9130 hn         1 SAB       0.393500
     33 HN42         0.5960     0.8630     8.5970 hn         1 SAB       0.393500
     34 HN31         0.2490     1.6060    -5.7980 hn         1 SAB       0.475000
     35 HN32         1.7450     1.5710    -5.2860 hn         1 SAB       0.475000
@<TRIPOS>BOND
     1     1     2 ar  
     2     1     6 ar  
     3     1     7 1   
     4     2     3 ar  
     5     2    19 1   
     6     3     4 ar  
     7     3    20 1   
     8     4     5 ar  
     9     4    15 1   
    10     5     6 ar  
    11     5    21 1   
    12     6    22 1   
    13     7     8 2   
    14     7     9 1   
    15     9    10 1   
    16     9    23 1   
    17    10    11 1   
    18    10    24 1   
    19    10    25 1   
    20    11    12 1   
    21    11    26 1   
    22    11    27 1   
    23    12    13 1   
    24    12    28 1   
    25    12    29 1   
    26    13    14 1   
    27    13    30 1   
    28    13    31 1   
    29    14    32 1   
    30    14    33 1   
    31    15    16 2   
    32    15    17 2   
    33    15    18 1   
    34    18    34 1   
    35    18    35 1   
@<TRIPOS>SUBSTRUCTURE
     1 SAB         1 TEMP              0 ****  ****    0 ROOT
