@<TRIPOS>MOLECULE
SAC
   18    17     1     0     0
SMALL
bcc


@<TRIPOS>ATOM
      1 C1A         28.6820   -20.4260    52.2390 c          1 SAC       0.684100
      2 C2A         27.3960   -20.7010    52.9790 c3         1 SAC      -0.173100
      3 OAC         29.5100   -19.6280    52.6650 o          1 SAC      -0.675100
      4 N           28.8630   -21.0750    51.0740 ns         1 SAC      -0.517900
      5 CA          28.1030   -22.2080    50.5980 c3         1 SAC      -0.044300
      6 C           28.4560   -23.5460    51.3180 c          1 SAC       0.913600
      7 O           29.3020   -23.4990    52.2250 o          1 SAC      -0.820300
      8 OXT         27.8330   -24.5430    50.9050 o          1 SAC      -0.820300
      9 CB          28.2940   -22.3540    49.0960 c3         1 SAC       0.131400
     10 OG          27.8890   -21.1650    48.4520 oh         1 SAC      -0.609800
     11 H2A1        26.5220   -20.5600    52.3420 hc         1 SAC       0.051033
     12 H2A2        27.3740   -21.7300    53.3380 hc         1 SAC       0.051033
     13 H2A3        27.3160   -20.0320    53.8320 hc         1 SAC       0.051033
     14 H           29.7750   -20.9430    50.6590 hn         1 SAC       0.294500
     15 HA          27.0390   -22.0140    50.7730 h1         1 SAC       0.050700
     16 HB2         29.3500   -22.5800    48.8860 h1         1 SAC       0.029200
     17 HB3         27.7090   -23.2160    48.7640 h1         1 SAC       0.029200
     18 HG          28.0910   -21.2530    47.5160 ho         1 SAC       0.376000
@<TRIPOS>BOND
     1     1     2 1   
     2     1     3 2   
     3     1     4 1   
     4     2    11 1   
     5     2    12 1   
     6     2    13 1   
     7     4     5 1   
     8     4    14 1   
     9     5     6 1   
    10     5     9 1   
    11     5    15 1   
    12     6     7 1   
    13     6     8 1   
    14     9    10 1   
    15     9    16 1   
    16     9    17 1   
    17    10    18 1   
@<TRIPOS>SUBSTRUCTURE
     1 SAC         1 TEMP              0 ****  ****    0 ROOT
