@<TRIPOS>MOLECULE
SAC
   18    17     1     0     0
SMALL
No Charge or Current Charge


@<TRIPOS>ATOM
      1 C1A         28.5860   -20.3930    52.1950 c          1 SAC       0.617100
      2 C2A         27.0800   -20.2720    52.4540 c3         1 SAC      -0.173100
      3 OAC         29.3690   -19.5210    52.5460 o          1 SAC      -0.675100
      4 N           29.0660   -21.5630    51.6480 ns         1 SAC      -0.450900
      5 CA          28.2920   -22.5500    50.8430 c3         1 SAC      -0.044300
      6 C           28.8700   -23.9780    51.0490 c          1 SAC       0.703000
      7 O           30.0530   -24.1720    50.7980 o          1 SAC      -0.715000
      8 OXT         28.1370   -24.8340    51.5240 o          1 SAC      -0.715000
      9 CB          28.2730   -22.2090    49.3330 c3         1 SAC       0.154600
     10 OG          27.6450   -20.9400    49.1000 oh         1 SAC      -0.672000
     11 H2A1        26.5380   -20.3350    51.5050 hc         1 SAC       0.051033
     12 H2A2        26.7330   -21.1650    52.9860 hc         1 SAC       0.051033
     13 H2A3        26.8200   -19.3560    52.9960 hc         1 SAC       0.051033
     14 H           30.0760   -21.6280    51.6030 hn         1 SAC       0.294500
     15 HA          27.2570   -22.5780    51.2010 h1         1 SAC       0.050700
     16 HB2         29.3020   -22.1980    48.9510 h1         1 SAC       0.029200
     17 HB3         27.7290   -23.0000    48.7980 h1         1 SAC       0.029200
     18 HG          27.6770   -20.7790    48.1310 ho         1 SAC       0.415000
@<TRIPOS>BOND
     1     1     2 1   
     2     1     3 2   
     3     1     4 1   
     4     2    11 1   
     5     2    12 1   
     6     2    13 1   
     7     4     5 1   
     8     4    14 1   
     9     5     6 1   
    10     5     9 1   
    11     5    15 1   
    12     6     7 1   
    13     6     8 1   
    14     9    10 1   
    15     9    16 1   
    16     9    17 1   
    17    10    18 1   
@<TRIPOS>SUBSTRUCTURE
     1 SAC         1 TEMP              0 ****  ****    0 ROOT
