@<TRIPOS>MOLECULE
SAD
   68    72     1     0     0
SMALL
No Charge or Current Charge


@<TRIPOS>ATOM
      1 PA          -0.3380     1.8920    -1.7540 p5         1 SAD       1.428400
      2 O1A         -0.8700     2.1420    -3.1250 o          1 SAD      -0.834500
      3 O2A          1.0890     2.3110    -1.6540 o          1 SAD      -0.834500
      4 O5B         -0.6390     0.3890    -1.2590 os         1 SAD      -0.579400
      5 C5B          0.3770    -0.6330    -1.2390 c3         1 SAD       0.219600
      6 C4B          0.8310    -1.1090    -2.6590 c5         1 SAD       0.154300
      7 O4B         -0.1940    -0.9220    -3.6690 os         1 SAD      -0.417000
      8 C3B          2.1400    -0.4400    -3.2340 c5         1 SAD       0.098300
      9 O3B          3.1440    -1.4040    -3.5600 oh         1 SAD      -0.716000
     10 C2B          1.6470     0.2050    -4.5660 c5         1 SAD       0.067300
     11 O2B          2.7140     0.2590    -5.5430 oh         1 SAD      -0.704000
     12 C1B          0.4830    -0.7730    -4.9220 c5         1 SAD       0.327300
     13 N9A         -0.4720    -0.3750    -5.9540 na         1 SAD      -0.295300
     14 C8A         -0.9350     0.9270    -6.1900 cc         1 SAD       0.461700
     15 N7A         -1.7430     0.9680    -7.2720 nd         1 SAD      -0.567100
     16 C5A         -1.7740    -0.3620    -7.7040 ca         1 SAD      -0.080600
     17 C6A         -2.4560    -0.9370    -8.7980 ca         1 SAD       0.432900
     18 N6A         -3.2360    -0.2150    -9.6470 nv         1 SAD      -1.079900
     19 N1A         -2.3700    -2.2510    -9.0570 nb         1 SAD      -0.327000
     20 C2A         -1.5930    -2.9740    -8.2140 ca         1 SAD       0.143900
     21 N3A         -0.9020    -2.5070    -7.1460 nb         1 SAD      -0.210000
     22 C4A         -1.0130    -1.1840    -6.9120 ca         1 SAD       0.102500
     23 C3          -1.3360     2.8730    -0.6750 c3         1 SAD      -0.778400
     24 PN          -0.9170     2.3530     0.9640 p5         1 SAD       1.425400
     25 O1N         -1.3050     3.4760     1.8680 o          1 SAD      -0.832000
     26 O2N          0.4930     1.9230     1.1600 o          1 SAD      -0.832000
     27 O5D         -1.9900     1.1600     1.1100 os         1 SAD      -0.583400
     28 C5D         -2.0340     0.3760     2.3090 c3         1 SAD       0.215600
     29 C4D         -1.4880    -1.0560     2.0100 c5         1 SAD       0.152300
     30 O4D         -0.0460    -1.1120     2.1760 os         1 SAD      -0.424000
     31 C3D         -2.0090    -2.1330     3.0130 c5         1 SAD       0.139300
     32 O3D         -1.7970    -3.4810     2.5770 oh         1 SAD      -0.720000
     33 C2D         -1.0990    -1.8230     4.2380 c5         1 SAD       0.103300
     34 O2D         -1.0460    -2.9490     5.1360 oh         1 SAD      -0.735000
     35 C1D          0.2770    -1.5170     3.5390 c5         1 SAD       0.097000
     36 C2N          1.1130    -0.4700     4.2670 cc         1 SAD       0.449700
     37 N3N          0.9150    -0.0900     5.5300 nd         1 SAD      -0.650000
     38 C4N          1.8720     0.8550     5.9240 cd         1 SAD       0.194500
     39 C5N          2.7900     1.1500     4.9290 cc         1 SAD      -0.202000
     40 SE1N         2.4880     0.2490     3.4710 ss         1 SAD       0.101600
     41 C6N          1.9510     1.5190     7.2890 c          1 SAD       0.538600
     42 O6N          1.1760     1.2990     8.2100 o          1 SAD      -0.607100
     43 N6N          2.9550     2.4140     7.4850 nt         1 SAD      -0.616000
     44 H51A         1.2540    -0.2970    -0.6710 h1         1 SAD       0.014700
     45 H52A        -0.0180    -1.5100    -0.7110 h1         1 SAD       0.014700
     46 H4B          1.0100    -2.1900    -2.5730 h1         1 SAD       0.089700
     47 H3B          2.5490     0.3190    -2.5530 h1         1 SAD       0.049700
     48 HO3A         3.4660    -1.0760    -4.4410 ho         1 SAD       0.502000
     49 H2B          1.2580     1.2130    -4.3670 h1         1 SAD       0.075700
     50 HO2A         2.4070     0.8140    -6.3000 ho         1 SAD       0.499000
     51 H1B          0.8940    -1.7430    -5.2350 h2         1 SAD       0.092700
     52 H8A         -0.6530     1.7720    -5.5720 h5         1 SAD       0.166800
     53 H61A        -3.9030    -0.7170   -10.2270 hn         1 SAD       0.497500
     54 H62A        -3.4960     0.7240    -9.3540 hn         1 SAD       0.497500
     55 H2A         -1.5140    -4.0410    -8.4160 h5         1 SAD       0.021100
     56 H31         -2.3930     2.6970    -0.8760 hc         1 SAD       0.069200
     57 H32         -1.0890     3.9270    -0.8090 hc         1 SAD       0.069200
     58 H51N        -3.0750     0.2960     2.6480 h1         1 SAD       0.017700
     59 H52N        -1.4550     0.8400     3.1200 h1         1 SAD       0.017700
     60 H4D         -1.7520    -1.3190     0.9770 h1         1 SAD       0.088700
     61 H3D         -3.0710    -1.9770     3.2560 h1         1 SAD       0.054700
     62 HO3N        -1.4680    -3.9210     3.4010 ho         1 SAD       0.506000
     63 H2D         -1.4800    -0.9330     4.7620 h1         1 SAD       0.068700
     64 HO2N        -0.6220    -2.6330     5.9730 ho         1 SAD       0.530000
     65 H1D          0.8720    -2.4370     3.4660 h1         1 SAD       0.072700
     66 HN5          3.6290     1.8320     4.9480 h4         1 SAD       0.144000
     67 H61N         3.0380     2.8730     8.3820 hn         1 SAD       0.306500
     68 H62N         3.6090     2.6200     6.7450 hn         1 SAD       0.306500
@<TRIPOS>BOND
     1     1     2 1   
     2     1     3 1   
     3     1     4 1   
     4     1    23 1   
     5     4     5 1   
     6     5     6 1   
     7     5    44 1   
     8     5    45 1   
     9     6     7 1   
    10     6     8 1   
    11     6    46 1   
    12     7    12 1   
    13     8     9 1   
    14     8    10 1   
    15     8    47 1   
    16     9    48 1   
    17    10    11 1   
    18    10    12 1   
    19    10    49 1   
    20    11    50 1   
    21    12    13 1   
    22    12    51 1   
    23    13    14 1   
    24    13    22 1   
    25    14    15 2   
    26    14    52 1   
    27    15    16 1   
    28    16    17 ar  
    29    16    22 ar  
    30    17    18 1   
    31    17    19 ar  
    32    18    53 1   
    33    18    54 1   
    34    19    20 ar  
    35    20    21 ar  
    36    20    55 1   
    37    21    22 ar  
    38    23    24 1   
    39    23    56 1   
    40    23    57 1   
    41    24    25 1   
    42    24    26 1   
    43    24    27 1   
    44    27    28 1   
    45    28    29 1   
    46    28    58 1   
    47    28    59 1   
    48    29    30 1   
    49    29    31 1   
    50    29    60 1   
    51    30    35 1   
    52    31    32 1   
    53    31    33 1   
    54    31    61 1   
    55    32    62 1   
    56    33    34 1   
    57    33    35 1   
    58    33    63 1   
    59    34    64 1   
    60    35    36 1   
    61    35    65 1   
    62    36    37 2   
    63    36    40 1   
    64    37    38 1   
    65    38    39 2   
    66    38    41 1   
    67    39    40 1   
    68    39    66 1   
    69    41    42 2   
    70    41    43 1   
    71    43    67 1   
    72    43    68 1   
@<TRIPOS>SUBSTRUCTURE
     1 SAD         1 TEMP              0 ****  ****    0 ROOT
