@<TRIPOS>MOLECULE
SAD
   68    72     1     0     0
SMALL
bcc


@<TRIPOS>ATOM
      1 PA           0.3190     1.9440    -1.5710 p5         1 SAD       1.270600
      2 O1A         -0.6610     2.1010    -2.7080 o          1 SAD      -0.834500
      3 O2A          0.7640     3.1760    -0.8310 o          1 SAD      -0.834500
      4 O5B          1.6680     1.1560    -2.1520 os         1 SAD      -0.556200
      5 C5B          2.3210     1.6980    -3.2720 c3         1 SAD       0.196400
      6 C4B          2.8380     0.5710    -4.1470 c5         1 SAD       0.131100
      7 O4B          1.7750    -0.3030    -4.5420 os         1 SAD      -0.370600
      8 C3B          3.4510     1.0890    -5.4400 c5         1 SAD       0.075100
      9 O3B          4.4200     0.1750    -5.8870 oh         1 SAD      -0.593800
     10 C2B          2.2290     1.0850    -6.3630 c5         1 SAD       0.044100
     11 O2B          2.5180     1.0220    -7.7270 oh         1 SAD      -0.581800
     12 C1B          1.5280    -0.1960    -5.9110 c5         1 SAD       0.274800
     13 N9A          0.1010    -0.1890    -6.1350 na         1 SAD      -0.266000
     14 C8A         -0.8550     0.4520    -5.3910 cc         1 SAD       0.461700
     15 N7A         -2.0570     0.2990    -5.8720 nd         1 SAD      -0.567100
     16 C5A         -1.8880    -0.4780    -6.9880 ca         1 SAD      -0.211200
     17 C6A         -2.7860    -0.9920    -7.9400 ca         1 SAD       0.761200
     18 N6A         -4.0980    -0.7490    -7.8960 nv         1 SAD      -0.969500
     19 N1A         -2.2910    -1.7450    -8.9290 nb         1 SAD      -0.853000
     20 C2A         -0.9810    -1.9750    -8.9710 ca         1 SAD       0.669900
     21 N3A         -0.0430    -1.5440    -8.1470 nb         1 SAD      -0.736000
     22 C4A         -0.5510    -0.7960    -7.1690 ca         1 SAD       0.430800
     23 C3          -0.2120     0.6500    -0.4040 c3         1 SAD      -0.462800
     24 PN          -1.4190     1.2820     0.8120 p5         1 SAD       1.267600
     25 O1N         -2.5570     1.9680     0.1070 o          1 SAD      -0.832000
     26 O2N         -0.7350     1.9790     1.9550 o          1 SAD      -0.832000
     27 O5D         -1.9520    -0.2060     1.3470 os         1 SAD      -0.560200
     28 C5D         -2.8080    -0.2440     2.4590 c3         1 SAD       0.192400
     29 C4D         -2.7260    -1.6230     3.0890 c5         1 SAD       0.129100
     30 O4D         -1.3730    -1.9410     3.4270 os         1 SAD      -0.377600
     31 C3D         -3.5120    -1.7150     4.3900 c5         1 SAD       0.116100
     32 O3D         -3.8970    -3.0500     4.5890 oh         1 SAD      -0.597800
     33 C2D         -2.4560    -1.2730     5.4000 c5         1 SAD       0.080100
     34 O2D         -2.7760    -1.6670     6.6980 oh         1 SAD      -0.612800
     35 C1D         -1.1970    -1.9440     4.8210 c5         1 SAD       0.073800
     36 C2N          0.0410    -1.1890     5.1620 cc         1 SAD       0.449700
     37 N3N          0.5690    -1.1730     6.3350 nd         1 SAD      -0.650000
     38 C4N          1.6570    -0.3450     6.4130 cd         1 SAD       0.259800
     39 C5N          2.0030     0.3250     5.2790 cc         1 SAD      -0.140400
     40 SE1N         0.8460    -0.0780     3.9010 ss         1 SAD      -0.043300
     41 C6N          2.3300    -0.2170     7.7380 c          1 SAD       0.605600
     42 O6N          1.7410    -0.4990     8.7700 o          1 SAD      -0.607100
     43 N6N          3.5920     0.2380     7.7080 nt         1 SAD      -0.683000
     44 H51A         1.6600     2.3540    -3.8520 h1         1 SAD       0.014700
     45 H52A         3.1820     2.3060    -2.9660 h1         1 SAD       0.014700
     46 H4B          3.5660    -0.0180    -3.5800 h1         1 SAD       0.089700
     47 H3B          3.8710     2.0970    -5.3190 h1         1 SAD       0.049700
     48 HO3A         4.5480     0.3170    -6.8320 ho         1 SAD       0.403000
     49 H2B          1.5930     1.9470    -6.1230 h1         1 SAD       0.075700
     50 HO2A         2.6940     1.9130    -8.0470 ho         1 SAD       0.400000
     51 H1B          1.9200    -1.0550    -6.4670 h2         1 SAD       0.092700
     52 H8A         -0.6190     1.0020    -4.4840 h5         1 SAD       0.166800
     53 H61A        -4.7150    -1.1680    -8.5690 hn         1 SAD       0.442300
     54 H62A        -4.5030    -0.2350    -7.1340 hn         1 SAD       0.442300
     55 H2A         -0.6440    -2.5960    -9.7950 h5         1 SAD       0.021100
     56 H31          0.6550     0.2550     0.1310 hc         1 SAD       0.069200
     57 H32         -0.6500    -0.1750    -0.9690 hc         1 SAD       0.069200
     58 H51N        -3.8510    -0.0640     2.1680 h1         1 SAD       0.017700
     59 H52N        -2.5430     0.5250     3.1960 h1         1 SAD       0.017700
     60 H4D         -3.0830    -2.3670     2.3690 h1         1 SAD       0.088700
     61 H3D         -4.3780    -1.0380     4.3900 h1         1 SAD       0.054700
     62 HO3N        -4.2280    -3.1410     5.4890 ho         1 SAD       0.407000
     63 H2D         -2.3440    -0.1820     5.3280 h1         1 SAD       0.068700
     64 HO2N        -2.0610    -1.4010     7.2870 ho         1 SAD       0.431000
     65 H1D         -1.1110    -2.9660     5.2130 h1         1 SAD       0.072700
     66 HN5          2.8120     1.0320     5.1610 h4         1 SAD       0.162000
     67 H61N         4.0940     0.3780     8.5700 hn         1 SAD       0.306500
     68 H62N         4.1060     0.3570     6.8540 hn         1 SAD       0.306500
@<TRIPOS>BOND
     1     1     2 1   
     2     1     3 1   
     3     1     4 1   
     4     1    23 1   
     5     4     5 1   
     6     5     6 1   
     7     5    44 1   
     8     5    45 1   
     9     6     7 1   
    10     6     8 1   
    11     6    46 1   
    12     7    12 1   
    13     8     9 1   
    14     8    10 1   
    15     8    47 1   
    16     9    48 1   
    17    10    11 1   
    18    10    12 1   
    19    10    49 1   
    20    11    50 1   
    21    12    13 1   
    22    12    51 1   
    23    13    14 1   
    24    13    22 1   
    25    14    15 2   
    26    14    52 1   
    27    15    16 1   
    28    16    17 ar  
    29    16    22 ar  
    30    17    18 1   
    31    17    19 ar  
    32    18    53 1   
    33    18    54 1   
    34    19    20 ar  
    35    20    21 ar  
    36    20    55 1   
    37    21    22 ar  
    38    23    24 1   
    39    23    56 1   
    40    23    57 1   
    41    24    25 1   
    42    24    26 1   
    43    24    27 1   
    44    27    28 1   
    45    28    29 1   
    46    28    58 1   
    47    28    59 1   
    48    29    30 1   
    49    29    31 1   
    50    29    60 1   
    51    30    35 1   
    52    31    32 1   
    53    31    33 1   
    54    31    61 1   
    55    32    62 1   
    56    33    34 1   
    57    33    35 1   
    58    33    63 1   
    59    34    64 1   
    60    35    36 1   
    61    35    65 1   
    62    36    37 2   
    63    36    40 1   
    64    37    38 1   
    65    38    39 2   
    66    38    41 1   
    67    39    40 1   
    68    39    66 1   
    69    41    42 2   
    70    41    43 1   
    71    43    67 1   
    72    43    68 1   
@<TRIPOS>SUBSTRUCTURE
     1 SAD         1 TEMP              0 ****  ****    0 ROOT
