@<TRIPOS>MOLECULE
SAE
   66    70     1     0     0
SMALL
No Charge or Current Charge


@<TRIPOS>ATOM
      1 PA          -0.3610     4.0840    -1.9450 p5         1 SAE       1.459800
      2 O1A         -1.0800     3.9460    -3.2460 o          1 SAE      -0.849500
      3 O2A         -0.4870     5.4610    -1.3800 o          1 SAE      -0.849500
      4 O5B          1.2140     3.7790    -2.1400 os         1 SAE      -0.559400
      5 C5B          1.7100     2.7530    -3.0180 c3         1 SAE       0.216600
      6 C4B          1.4890     1.3310    -2.4170 c5         1 SAE       0.155300
      7 O4B          0.2570     0.7660    -2.9540 os         1 SAE      -0.410000
      8 C3B          2.6200     0.3190    -2.8160 c5         1 SAE       0.098300
      9 O3B          2.7920    -0.7430    -1.8680 oh         1 SAE      -0.712000
     10 C2B          2.0390    -0.2270    -4.1470 c5         1 SAE       0.068300
     11 O2B          2.7120    -1.4280    -4.5760 oh         1 SAE      -0.704000
     12 C1B          0.5540    -0.4350    -3.6990 c5         1 SAE       0.325300
     13 N9A         -0.4370    -0.6380    -4.7640 na         1 SAE      -0.294300
     14 C8A         -0.1540    -1.1530    -6.0400 cc         1 SAE       0.464700
     15 N7A         -1.2760    -1.2670    -6.7840 nd         1 SAE      -0.569100
     16 C5A         -2.2810    -0.8080    -5.9250 ca         1 SAE      -0.081600
     17 C6A         -3.6720    -0.7040    -6.1480 ca         1 SAE       0.432900
     18 N6A         -4.2620    -1.0640    -7.3210 nv         1 SAE      -1.080900
     19 N1A         -4.5000    -0.2520    -5.1910 nb         1 SAE      -0.328000
     20 C2A         -3.9190     0.0970    -4.0170 ca         1 SAE       0.144900
     21 N3A         -2.5990     0.0280    -3.7150 nb         1 SAE      -0.208000
     22 C4A         -1.7910    -0.4290    -4.6980 ca         1 SAE       0.105500
     23 O3          -0.6730     2.9340    -0.9110 os         1 SAE      -0.682800
     24 PN          -1.9810     3.2070    -0.0750 p5         1 SAE       1.454800
     25 O1N         -3.1600     3.6280    -0.8900 o          1 SAE      -0.848000
     26 O2N         -1.7590     4.0920     1.1080 o          1 SAE      -0.848000
     27 O5D         -2.2230     1.6920     0.4240 os         1 SAE      -0.562400
     28 C5D         -1.3270     1.0850     1.3650 c3         1 SAE       0.210600
     29 C4D         -0.6090    -0.1130     0.6720 c5         1 SAE       0.158300
     30 O4D          0.6140    -0.4310     1.3910 os         1 SAE      -0.419000
     31 C3D         -1.4290    -1.4440     0.6730 c5         1 SAE       0.098300
     32 O3D         -0.9570    -2.4050    -0.2850 oh         1 SAE      -0.713000
     33 C2D         -1.1350    -1.9360     2.1230 c5         1 SAE       0.095300
     34 O2D         -1.4230    -3.3400     2.2650 oh         1 SAE      -0.708000
     35 C1D          0.3930    -1.5960     2.2420 c5         1 SAE       0.136000
     36 C2N          0.8260    -1.3380     3.6790 cc         1 SAE       0.449700
     37 N3N          1.6690    -2.1180     4.3550 nd         1 SAE      -0.626000
     38 C4N          1.9140    -1.5970     5.6340 cd         1 SAE       0.190500
     39 C5N          1.2370    -0.4140     5.8820 cc         1 SAE      -0.202000
     40 SE1N         0.2680     0.0820     4.5270 ss         1 SAE       0.090600
     41 C6N          2.8210    -2.2150     6.6830 c          1 SAE       0.536600
     42 O6N          3.4450    -3.2570     6.5290 o          1 SAE      -0.604100
     43 N6N          2.9390    -1.5530     7.8670 nt         1 SAE      -0.615000
     44 H51A         1.2440     2.8160    -4.0100 h1         1 SAE       0.011200
     45 H52A         2.7870     2.9080    -3.1610 h1         1 SAE       0.011200
     46 H4B          1.4180     1.4150    -1.3250 h1         1 SAE       0.098700
     47 H3B          3.5790     0.8310    -2.9800 h1         1 SAE       0.049700
     48 HO3A         3.0180    -1.5340    -2.4150 ho         1 SAE       0.501000
     49 H2B          2.0870     0.5420    -4.9330 h1         1 SAE       0.069700
     50 HO2A         3.5500    -1.1610    -5.0250 ho         1 SAE       0.498000
     51 H1B          0.4770    -1.3050    -3.0340 h2         1 SAE       0.095700
     52 H8A          0.8480    -1.4280    -6.3570 h5         1 SAE       0.160800
     53 H61A        -5.2620    -1.2530    -7.3070 hn         1 SAE       0.497500
     54 H62A        -3.7010    -1.6100    -7.9740 hn         1 SAE       0.497500
     55 H2A         -4.5820     0.4690    -3.2360 h5         1 SAE       0.022100
     56 H51N        -1.8770     0.7510     2.2550 h1         1 SAE       0.012700
     57 H52N        -0.5620     1.8000     1.6970 h1         1 SAE       0.012700
     58 H4D         -0.3460     0.1930    -0.3490 h1         1 SAE       0.099700
     59 H3D         -2.5010    -1.2520     0.5220 h1         1 SAE       0.048700
     60 HO3N        -0.9470    -3.2550     0.2190 ho         1 SAE       0.501000
     61 H2D         -1.7200    -1.3560     2.8540 h1         1 SAE       0.063700
     62 HO2N        -2.3730    -3.4280     2.5270 ho         1 SAE       0.497000
     63 H1D          0.9930    -2.4210     1.8330 h1         1 SAE       0.082700
     64 HN5          1.2390     0.2060     6.7680 h4         1 SAE       0.143000
     65 H61N         3.5380    -1.9310     8.5870 hn         1 SAE       0.305000
     66 H62N         2.4350    -0.6930     8.0250 hn         1 SAE       0.305000
@<TRIPOS>BOND
     1     1     2 1   
     2     1     3 1   
     3     1     4 1   
     4     1    23 1   
     5     4     5 1   
     6     5     6 1   
     7     5    44 1   
     8     5    45 1   
     9     6     7 1   
    10     6     8 1   
    11     6    46 1   
    12     7    12 1   
    13     8     9 1   
    14     8    10 1   
    15     8    47 1   
    16     9    48 1   
    17    10    11 1   
    18    10    12 1   
    19    10    49 1   
    20    11    50 1   
    21    12    13 1   
    22    12    51 1   
    23    13    14 1   
    24    13    22 1   
    25    14    15 2   
    26    14    52 1   
    27    15    16 1   
    28    16    17 ar  
    29    16    22 ar  
    30    17    18 1   
    31    17    19 ar  
    32    18    53 1   
    33    18    54 1   
    34    19    20 ar  
    35    20    21 ar  
    36    20    55 1   
    37    21    22 ar  
    38    23    24 1   
    39    24    25 1   
    40    24    26 1   
    41    24    27 1   
    42    27    28 1   
    43    28    29 1   
    44    28    56 1   
    45    28    57 1   
    46    29    30 1   
    47    29    31 1   
    48    29    58 1   
    49    30    35 1   
    50    31    32 1   
    51    31    33 1   
    52    31    59 1   
    53    32    60 1   
    54    33    34 1   
    55    33    35 1   
    56    33    61 1   
    57    34    62 1   
    58    35    36 1   
    59    35    63 1   
    60    36    37 2   
    61    36    40 1   
    62    37    38 1   
    63    38    39 2   
    64    38    41 1   
    65    39    40 1   
    66    39    64 1   
    67    41    42 2   
    68    41    43 1   
    69    43    65 1   
    70    43    66 1   
@<TRIPOS>SUBSTRUCTURE
     1 SAE         1 TEMP              0 ****  ****    0 ROOT
