@<TRIPOS>MOLECULE
SAE
   66    70     1     0     0
SMALL
abcg2


@<TRIPOS>ATOM
      1 PA           0.3070     2.4030    -1.6250 p5         1 SAE       1.459800
      2 O1A         -0.7530     2.3670    -2.6860 o          1 SAE      -0.849500
      3 O2A          0.8840     3.7120    -1.1920 o          1 SAE      -0.849500
      4 O5B          1.5140     1.3590    -2.0320 os         1 SAE      -0.559400
      5 C5B          2.2660     1.6510    -3.1870 c3         1 SAE       0.216600
      6 C4B          2.7190     0.3490    -3.8170 c5         1 SAE       0.155300
      7 O4B          1.5930    -0.4650    -4.1670 os         1 SAE      -0.410000
      8 C3B          3.4830     0.5720    -5.1130 c5         1 SAE       0.098300
      9 O3B          4.3400    -0.5200    -5.3260 oh         1 SAE      -0.712000
     10 C2B          2.3370     0.5730    -6.1280 c5         1 SAE       0.068300
     11 O2B          2.7030     0.2530    -7.4360 oh         1 SAE      -0.704000
     12 C1B          1.4350    -0.5210    -5.5540 c5         1 SAE       0.325300
     13 N9A          0.0380    -0.3520    -5.8810 na         1 SAE      -0.294300
     14 C8A         -0.8540     0.5170    -5.3090 cc         1 SAE       0.464700
     15 N7A         -2.0330     0.4690    -5.8590 nd         1 SAE      -0.569100
     16 C5A         -1.9170    -0.4740    -6.8460 ca         1 SAE      -0.081600
     17 C6A         -2.8250    -0.9870    -7.7900 ca         1 SAE       0.432900
     18 N6A         -4.0900    -0.5710    -7.8730 nv         1 SAE      -1.080900
     19 N1A         -2.3900    -1.9350    -8.6280 nb         1 SAE      -0.328000
     20 C2A         -1.1300    -2.3510    -8.5350 ca         1 SAE       0.144900
     21 N3A         -0.1890    -1.9450    -7.7010 nb         1 SAE      -0.208000
     22 C4A         -0.6360    -1.0010    -6.8750 ca         1 SAE       0.105500
     23 O3          -0.1580     1.5150    -0.3300 os         1 SAE      -0.682800
     24 PN          -0.9160     2.1590     0.9780 p5         1 SAE       1.454800
     25 O1N         -1.9620     3.1370     0.5440 o          1 SAE      -0.848000
     26 O2N          0.0860     2.5370     2.0220 o          1 SAE      -0.848000
     27 O5D         -1.6270     0.7290     1.3820 os         1 SAE      -0.562400
     28 C5D         -2.5180     0.7260     2.4720 c3         1 SAE       0.210600
     29 C4D         -2.8460    -0.7170     2.8110 c5         1 SAE       0.158300
     30 O4D         -1.6580    -1.4660     3.0690 os         1 SAE      -0.419000
     31 C3D         -3.6810    -0.8400     4.0750 c5         1 SAE       0.098300
     32 O3D         -4.3900    -2.0500     4.0350 oh         1 SAE      -0.713000
     33 C2D         -2.5890    -0.8810     5.1520 c5         1 SAE       0.095300
     34 O2D         -2.9710    -1.5130     6.3380 oh         1 SAE      -0.708000
     35 C1D         -1.4940    -1.6980     4.4470 c5         1 SAE       0.136000
     36 C2N         -0.1150    -1.2840     4.8430 cc         1 SAE       0.449700
     37 N3N          0.4490    -1.5790     5.9600 nd         1 SAE      -0.626000
     38 C4N          1.6830    -1.0040     6.0980 cd         1 SAE       0.190500
     39 C5N          2.1300    -0.2420     5.0610 cc         1 SAE      -0.202000
     40 SE1N         0.8800    -0.1830     3.7090 ss         1 SAE       0.090600
     41 C6N          2.4460    -1.3060     7.3430 c          1 SAE       0.536600
     42 O6N          2.2080    -2.3080     7.9980 o          1 SAE      -0.604100
     43 N6N          3.4030    -0.4210     7.6640 nt         1 SAE      -0.615000
     44 H51A         1.6910     2.2370    -3.9140 h1         1 SAE       0.011200
     45 H52A         3.1540     2.2410    -2.9300 h1         1 SAE       0.011200
     46 H4B          3.3260    -0.2070    -3.0960 h1         1 SAE       0.098700
     47 H3B          4.0320     1.5240    -5.1090 h1         1 SAE       0.049700
     48 HO3A         4.5650    -0.5430    -6.2630 ho         1 SAE       0.501000
     49 H2B          1.8160     1.5390    -6.0800 h1         1 SAE       0.069700
     50 HO2A         3.0220     1.0500    -7.8720 ho         1 SAE       0.498000
     51 H1B          1.7280    -1.4970    -5.9560 h2         1 SAE       0.095700
     52 H8A         -0.5990     1.1440    -4.4620 h5         1 SAE       0.160800
     53 H61A        -4.7000    -0.9400    -8.5820 hn         1 SAE       0.497500
     54 H62A        -4.4350     0.1660    -7.2840 hn         1 SAE       0.497500
     55 H2A         -0.8430    -3.1240    -9.2400 h5         1 SAE       0.022100
     56 H51N        -3.4530     1.2420     2.2240 h1         1 SAE       0.012700
     57 H52N        -2.0870     1.2380     3.3420 h1         1 SAE       0.012700
     58 H4D         -3.3550    -1.1750     1.9580 h1         1 SAE       0.099700
     59 H3D         -4.3530     0.0190     4.2100 h1         1 SAE       0.048700
     60 HO3N        -4.5610    -2.3210     4.9460 ho         1 SAE       0.501000
     61 H2D         -2.2330     0.1380     5.3410 h1         1 SAE       0.063700
     62 HO2N        -3.4090    -0.8690     6.9040 ho         1 SAE       0.497000
     63 H1D         -1.6250    -2.7620     4.6850 h1         1 SAE       0.082700
     64 HN5          3.0870     0.2550     4.9850 h4         1 SAE       0.143000
     65 H61N         3.9490    -0.5590     8.4980 hn         1 SAE       0.305000
     66 H62N         3.4810     0.4740     7.2120 hn         1 SAE       0.305000
@<TRIPOS>BOND
     1     1     2 1   
     2     1     3 1   
     3     1     4 1   
     4     1    23 1   
     5     4     5 1   
     6     5     6 1   
     7     5    44 1   
     8     5    45 1   
     9     6     7 1   
    10     6     8 1   
    11     6    46 1   
    12     7    12 1   
    13     8     9 1   
    14     8    10 1   
    15     8    47 1   
    16     9    48 1   
    17    10    11 1   
    18    10    12 1   
    19    10    49 1   
    20    11    50 1   
    21    12    13 1   
    22    12    51 1   
    23    13    14 1   
    24    13    22 1   
    25    14    15 2   
    26    14    52 1   
    27    15    16 1   
    28    16    17 ar  
    29    16    22 ar  
    30    17    18 1   
    31    17    19 ar  
    32    18    53 1   
    33    18    54 1   
    34    19    20 ar  
    35    20    21 ar  
    36    20    55 1   
    37    21    22 ar  
    38    23    24 1   
    39    24    25 1   
    40    24    26 1   
    41    24    27 1   
    42    27    28 1   
    43    28    29 1   
    44    28    56 1   
    45    28    57 1   
    46    29    30 1   
    47    29    31 1   
    48    29    58 1   
    49    30    35 1   
    50    31    32 1   
    51    31    33 1   
    52    31    59 1   
    53    32    60 1   
    54    33    34 1   
    55    33    35 1   
    56    33    61 1   
    57    34    62 1   
    58    35    36 1   
    59    35    63 1   
    60    36    37 2   
    61    36    40 1   
    62    37    38 1   
    63    38    39 2   
    64    38    41 1   
    65    39    40 1   
    66    39    64 1   
    67    41    42 2   
    68    41    43 1   
    69    43    65 1   
    70    43    66 1   
@<TRIPOS>SUBSTRUCTURE
     1 SAE         1 TEMP              0 ****  ****    0 ROOT
