@<TRIPOS>MOLECULE
SAF
   27    27     1     0     0
SMALL
No Charge or Current Charge


@<TRIPOS>ATOM
      1 C1           0.9860     1.0800    -0.3680 ca         1 SAF      -0.124000
      2 C3          -0.6430    -0.5650    -1.1140 ca         1 SAF      -0.205000
      3 C4          -0.1100    -0.4990    -2.4110 ca         1 SAF       0.134100
      4 C5           0.9670     0.3540    -2.6890 ca         1 SAF      -0.145000
      5 C6           1.5180     1.1450    -1.6670 ca         1 SAF      -0.081000
      6 O4          -0.6400    -1.2650    -3.4060 oh         1 SAF      -0.536100
      7 N2           0.3200    -0.3160     2.3470 n3         1 SAF      -0.713600
      8 C7          -0.2090    -0.3980     3.7310 c3         1 SAF       0.149600
      9 C8           0.9820    -1.5860     1.9550 c3         1 SAF       0.149600
     10 C9          -0.6820     0.1540     1.3410 c3         1 SAF       0.225800
     11 C10         -1.3280     1.5160     1.6930 c3         1 SAF      -0.088100
     12 C40         -0.1000     0.2260    -0.0790 ca         1 SAF      -0.042300
     13 H1           1.4210     1.6890     0.4220 ha         1 SAF       0.130000
     14 H3          -1.4780    -1.2280    -0.9020 ha         1 SAF       0.108000
     15 H5           1.3770     0.4030    -3.6950 ha         1 SAF       0.127000
     16 H6           2.3560     1.8060    -1.8800 ha         1 SAF       0.114000
     17 H4          -1.3770    -1.7910    -3.0300 ho         1 SAF       0.462000
     18 H7C1         0.5610    -0.7720     4.4190 h1         1 SAF       0.031367
     19 H7C2        -0.5200     0.5880     4.1000 h1         1 SAF       0.031367
     20 H7C3        -1.0710    -1.0770     3.7820 h1         1 SAF       0.031367
     21 H8C1         1.7210    -1.8870     2.7090 h1         1 SAF       0.031367
     22 H8C2         0.2460    -2.3960     1.8550 h1         1 SAF       0.031367
     23 H8C3         1.5140    -1.4840     1.0000 h1         1 SAF       0.031367
     24 H9          -1.5020    -0.5770     1.3160 h1         1 SAF       0.022700
     25 H101        -0.5620     2.2800     1.8710 hc         1 SAF       0.041367
     26 H102        -1.9670     1.8570     0.8710 hc         1 SAF       0.041367
     27 H103        -1.9590     1.4390     2.5860 hc         1 SAF       0.041367
@<TRIPOS>BOND
     1     1     5 ar  
     2     1    12 ar  
     3     1    13 1   
     4     2     3 ar  
     5     2    12 ar  
     6     2    14 1   
     7     3     4 ar  
     8     3     6 1   
     9     4     5 ar  
    10     4    15 1   
    11     5    16 1   
    12     6    17 1   
    13     7     8 1   
    14     7     9 1   
    15     7    10 1   
    16     8    18 1   
    17     8    19 1   
    18     8    20 1   
    19     9    21 1   
    20     9    22 1   
    21     9    23 1   
    22    10    11 1   
    23    10    12 1   
    24    10    24 1   
    25    11    25 1   
    26    11    26 1   
    27    11    27 1   
@<TRIPOS>SUBSTRUCTURE
     1 SAF         1 TEMP              0 ****  ****    0 ROOT
