@<TRIPOS>MOLECULE
SAF
   27    27     1     0     0
SMALL
bcc


@<TRIPOS>ATOM
      1 C1           1.0680     0.9020    -0.2860 ca         1 SAF      -0.142000
      2 C3          -0.6820    -0.5030    -1.1380 ca         1 SAF      -0.223000
      3 C4          -0.1760    -0.3670    -2.4300 ca         1 SAF       0.134100
      4 C5           0.9600     0.4070    -2.6490 ca         1 SAF      -0.163000
      5 C6           1.5720     1.0320    -1.5720 ca         1 SAF      -0.099000
      6 O4          -0.7480    -0.9680    -3.4950 oh         1 SAF      -0.497100
      7 N2           0.3590    -0.2710     2.3060 n3         1 SAF      -0.713600
      8 C7          -0.1250    -0.2270     3.6720 c3         1 SAF       0.149600
      9 C8           0.9830    -1.5540     2.0480 c3         1 SAF       0.149600
     10 C9          -0.6730     0.0210     1.3200 c3         1 SAF       0.225800
     11 C10         -1.4220     1.3190     1.6230 c3         1 SAF      -0.088100
     12 C40         -0.0690     0.1290    -0.0640 ca         1 SAF      -0.042300
     13 H1           1.5610     1.3870     0.5460 ha         1 SAF       0.148000
     14 H3          -1.5620    -1.1150    -0.9660 ha         1 SAF       0.126000
     15 H5           1.3580     0.5120    -3.6500 ha         1 SAF       0.145000
     16 H6           2.4580     1.6300    -1.7440 ha         1 SAF       0.132000
     17 H4          -1.5320    -1.4560    -3.2220 ho         1 SAF       0.423000
     18 H7C1         0.6900    -0.4820     4.3490 h1         1 SAF       0.031367
     19 H7C2        -0.4650     0.7710     3.9410 h1         1 SAF       0.031367
     20 H7C3        -0.9500    -0.9310     3.8660 h1         1 SAF       0.031367
     21 H8C1         1.7740    -1.7320     2.7780 h1         1 SAF       0.031367
     22 H8C2         0.2770    -2.3970     2.1090 h1         1 SAF       0.031367
     23 H8C3         1.4390    -1.5750     1.0580 h1         1 SAF       0.031367
     24 H9          -1.4220    -0.7930     1.2980 h1         1 SAF       0.022700
     25 H101        -0.7260     2.1500     1.7520 hc         1 SAF       0.041367
     26 H102        -2.0840     1.5620     0.7920 hc         1 SAF       0.041367
     27 H103        -2.0400     1.2440     2.5160 hc         1 SAF       0.041367
@<TRIPOS>BOND
     1     1     5 ar  
     2     1    12 ar  
     3     1    13 1   
     4     2     3 ar  
     5     2    12 ar  
     6     2    14 1   
     7     3     4 ar  
     8     3     6 1   
     9     4     5 ar  
    10     4    15 1   
    11     5    16 1   
    12     6    17 1   
    13     7     8 1   
    14     7     9 1   
    15     7    10 1   
    16     8    18 1   
    17     8    19 1   
    18     8    20 1   
    19     9    21 1   
    20     9    22 1   
    21     9    23 1   
    22    10    11 1   
    23    10    12 1   
    24    10    24 1   
    25    11    25 1   
    26    11    26 1   
    27    11    27 1   
@<TRIPOS>SUBSTRUCTURE
     1 SAF         1 TEMP              0 ****  ****    0 ROOT
