@<TRIPOS>MOLECULE
SAG
   39    40     1     0     0
SMALL
No Charge or Current Charge


@<TRIPOS>ATOM
      1 F3          -6.9120    -2.1140    -0.6460 f          1 SAG      -0.178000
      2 C3          -6.3090    -1.0050    -0.1640 ca         1 SAG       0.167000
      3 C2          -4.9380    -1.0320     0.1370 ca         1 SAG      -0.125000
      4 C4          -7.0580     0.1660     0.0320 ca         1 SAG      -0.140000
      5 C5          -6.4300     1.3200     0.5330 ca         1 SAG      -0.089000
      6 C6          -5.0560     1.2970     0.8350 ca         1 SAG      -0.103000
      7 C1          -4.3020     0.1210     0.6400 ca         1 SAG      -0.069300
      8 C7          -2.8140     0.0970     0.9670 c3         1 SAG       0.208900
      9 O8          -2.0790     0.3760    -0.2370 os         1 SAG      -0.341100
     10 C9          -0.7010     0.4210    -0.2620 ca         1 SAG       0.159100
     11 C10         -0.0770     0.7020    -1.4870 ca         1 SAG      -0.184500
     12 C11          1.3240     0.7610    -1.5780 ca         1 SAG      -0.036500
     13 C14          0.0910     0.1980     0.8840 ca         1 SAG      -0.184500
     14 C13          1.4930     0.2560     0.7950 ca         1 SAG      -0.036500
     15 C12          2.1220     0.5390    -0.4380 ca         1 SAG      -0.193900
     16 C15          3.6090     0.6090    -0.5640 ce         1 SAG       0.491800
     17 N16          4.3940     0.4200     0.4510 n2         1 SAG      -0.569900
     18 C17          5.8670     0.4840     0.2840 c3         1 SAG       0.040500
     19 C18          6.5160     0.5670     1.6860 c3         1 SAG      -0.081100
     20 C19          6.4670    -0.6850    -0.5730 c          1 SAG       0.605100
     21 O20          5.8130    -1.6110    -1.0300 o          1 SAG      -0.573100
     22 N21          7.7990    -0.6310    -0.8120 nt         1 SAG      -0.618000
     23 H2          -4.3720    -1.9460    -0.0240 ha         1 SAG       0.136000
     24 H4          -8.1190     0.1770    -0.2030 ha         1 SAG       0.133000
     25 H5          -7.0050     2.2310     0.6850 ha         1 SAG       0.120000
     26 H6          -4.5760     2.1950     1.2190 ha         1 SAG       0.120000
     27 H7C1        -2.5950     0.8470     1.7370 h1         1 SAG       0.045700
     28 H7C2        -2.5450    -0.8910     1.3640 h1         1 SAG       0.045700
     29 H10         -0.6840     0.8740    -2.3720 ha         1 SAG       0.124500
     30 H14         -0.3590    -0.0220     1.8470 ha         1 SAG       0.124500
     31 H11          1.7890     0.9800    -2.5380 ha         1 SAG       0.125000
     32 H13          2.0870     0.0810     1.6910 ha         1 SAG       0.125000
     33 H15          4.0100     0.8400    -1.5540 h4         1 SAG      -0.039200
     34 H17          6.1290     1.4110    -0.2440 h1         1 SAG       0.032700
     35 H181         6.3320    -0.3530     2.2540 hc         1 SAG       0.046033
     36 H182         7.6000     0.7140     1.6120 hc         1 SAG       0.046033
     37 H183         6.1030     1.4090     2.2540 hc         1 SAG       0.046033
     38 H211         8.3500     0.1330    -0.4470 hn         1 SAG       0.312000
     39 H212         8.2320    -1.3590    -1.3610 hn         1 SAG       0.312000
@<TRIPOS>BOND
     1     1     2 1   
     2     2     3 ar  
     3     2     4 ar  
     4     3     7 ar  
     5     3    23 1   
     6     4     5 ar  
     7     4    24 1   
     8     5     6 ar  
     9     5    25 1   
    10     6     7 ar  
    11     6    26 1   
    12     7     8 1   
    13     8     9 1   
    14     8    27 1   
    15     8    28 1   
    16     9    10 1   
    17    10    11 ar  
    18    10    13 ar  
    19    11    12 ar  
    20    11    29 1   
    21    12    15 ar  
    22    12    31 1   
    23    13    14 ar  
    24    13    30 1   
    25    14    15 ar  
    26    14    32 1   
    27    15    16 1   
    28    16    17 2   
    29    16    33 1   
    30    17    18 1   
    31    18    19 1   
    32    18    20 1   
    33    18    34 1   
    34    19    35 1   
    35    19    36 1   
    36    19    37 1   
    37    20    21 2   
    38    20    22 1   
    39    22    38 1   
    40    22    39 1   
@<TRIPOS>SUBSTRUCTURE
     1 SAG         1 TEMP              0 ****  ****    0 ROOT
