@<TRIPOS>MOLECULE
SAG
   39    40     1     0     0
SMALL
abcg2


@<TRIPOS>ATOM
      1 F3          -6.8230    -1.6090    -1.2520 f          1 SAG      -0.178000
      2 C3          -6.1940    -0.7250    -0.4610 ca         1 SAG       0.167000
      3 C2          -4.8500    -0.9020    -0.2050 ca         1 SAG      -0.125000
      4 C4          -6.9180     0.3280     0.0670 ca         1 SAG      -0.140000
      5 C5          -6.2570     1.2340     0.8840 ca         1 SAG      -0.089000
      6 C6          -4.9040     1.0810     1.1560 ca         1 SAG      -0.103000
      7 C1          -4.1960     0.0120     0.6160 ca         1 SAG      -0.069300
      8 C7          -2.7280    -0.1400     0.8770 c3         1 SAG       0.208900
      9 O8          -2.0470     0.4270    -0.2360 os         1 SAG      -0.341100
     10 C9          -0.7030     0.4280    -0.2430 ca         1 SAG       0.159100
     11 C10         -0.0930     0.9910    -1.3660 ca         1 SAG      -0.184500
     12 C11          1.2840     1.0390    -1.4510 ca         1 SAG      -0.036500
     13 C14          0.0900    -0.0870     0.7850 ca         1 SAG      -0.184500
     14 C13          1.4700    -0.0300     0.6820 ca         1 SAG      -0.036500
     15 C12          2.0900     0.5320    -0.4310 ca         1 SAG      -0.193900
     16 C15          3.5450     0.6140    -0.5560 ce         1 SAG       0.491800
     17 N16          4.3380     0.1740     0.3250 n2         1 SAG      -0.569900
     18 C17          5.7490     0.3470     0.1030 c3         1 SAG       0.040500
     19 C18          6.3410     1.1610     1.2560 c3         1 SAG      -0.081100
     20 C19          6.4230    -1.0240     0.0220 c          1 SAG       0.605100
     21 O20          5.8570    -2.0580     0.3360 o          1 SAG      -0.573100
     22 N21          7.6920    -0.9830    -0.4130 nt         1 SAG      -0.618000
     23 H2          -4.3210    -1.7450    -0.6330 ha         1 SAG       0.136000
     24 H4          -7.9710     0.4370    -0.1530 ha         1 SAG       0.133000
     25 H5          -6.8040     2.0640     1.3100 ha         1 SAG       0.120000
     26 H6          -4.3980     1.7950     1.7940 ha         1 SAG       0.120000
     27 H7C1        -2.4500     0.3770     1.8010 h1         1 SAG       0.045700
     28 H7C2        -2.4610    -1.1950     0.9890 h1         1 SAG       0.045700
     29 H10         -0.7070     1.3900    -2.1640 ha         1 SAG       0.124500
     30 H14         -0.3470    -0.5300     1.6690 ha         1 SAG       0.124500
     31 H11          1.7420     1.4820    -2.3280 ha         1 SAG       0.125000
     32 H13          2.0750    -0.4300     1.4860 ha         1 SAG       0.125000
     33 H15          3.9060     1.0930    -1.4750 h4         1 SAG      -0.039200
     34 H17          5.9550     0.8760    -0.8400 h1         1 SAG       0.032700
     35 H181         6.1850     0.6520     2.2080 hc         1 SAG       0.046033
     36 H182         7.4100     1.3240     1.1240 hc         1 SAG       0.046033
     37 H183         5.8590     2.1370     1.3060 hc         1 SAG       0.046033
     38 H211         8.1300    -0.1260    -0.7050 hn         1 SAG       0.312000
     39 H212         8.2240    -1.8320    -0.5120 hn         1 SAG       0.312000
@<TRIPOS>BOND
     1     1     2 1   
     2     2     3 ar  
     3     2     4 ar  
     4     3     7 ar  
     5     3    23 1   
     6     4     5 ar  
     7     4    24 1   
     8     5     6 ar  
     9     5    25 1   
    10     6     7 ar  
    11     6    26 1   
    12     7     8 1   
    13     8     9 1   
    14     8    27 1   
    15     8    28 1   
    16     9    10 1   
    17    10    11 ar  
    18    10    13 ar  
    19    11    12 ar  
    20    11    29 1   
    21    12    15 ar  
    22    12    31 1   
    23    13    14 ar  
    24    13    30 1   
    25    14    15 ar  
    26    14    32 1   
    27    15    16 1   
    28    16    17 2   
    29    16    33 1   
    30    17    18 1   
    31    18    19 1   
    32    18    20 1   
    33    18    34 1   
    34    19    35 1   
    35    19    36 1   
    36    19    37 1   
    37    20    21 2   
    38    20    22 1   
    39    22    38 1   
    40    22    39 1   
@<TRIPOS>SUBSTRUCTURE
     1 SAG         1 TEMP              0 ****  ****    0 ROOT
