@<TRIPOS>MOLECULE
SAH
   45    47     1     0     0
SMALL
abcg2


@<TRIPOS>ATOM
      1 N           -3.5240    13.3800    24.6280 n8         1 SAH      -1.012200
      2 CA          -3.3580    12.3440    25.6370 c3         1 SAH       0.021500
      3 CB          -2.4090    11.2560    25.1370 c3         1 SAH      -0.043400
      4 CG          -2.9270    10.5880    23.8720 c3         1 SAH       0.084600
      5 SD          -1.7980     9.2430    23.3970 ss         1 SAH      -0.463000
      6 C           -2.8720    12.9470    26.9840 c          1 SAH       0.720000
      7 O           -2.9930    14.1810    27.1250 o          1 SAH      -0.725500
      8 OXT         -2.4370    12.1390    27.8260 o          1 SAH      -0.725500
      9 C5          -2.4380     8.7820    21.7680 c3         1 SAH       0.031600
     10 C4          -3.8090     8.1210    21.8170 c5         1 SAH       0.165300
     11 O4          -4.2560     7.8830    20.4750 os         1 SAH      -0.454000
     12 C3          -3.8280     6.7630    22.5120 c5         1 SAH       0.153300
     13 O3          -5.1130     6.5640    23.0450 oh         1 SAH      -0.707000
     14 C2          -3.5560     5.8270    21.3410 c5         1 SAH       0.085300
     15 O2          -3.9510     4.5210    21.6240 oh         1 SAH      -0.704000
     16 C1          -4.3710     6.5060    20.2360 c5         1 SAH       0.277300
     17 N9          -3.9180     6.2110    18.9020 na         1 SAH      -0.288300
     18 C8          -2.6850     6.4730    18.3660 cc         1 SAH       0.414700
     19 N7          -2.5710     6.1060    17.1260 nd         1 SAH      -0.561100
     20 C7          -3.7960     5.5700    16.8160 ca         1 SAH      -0.101600
     21 C6          -4.3220     4.9960    15.6430 ca         1 SAH       0.448900
     22 N6          -3.6170     4.8750    14.5180 nv         1 SAH      -1.068900
     23 N1          -5.5870     4.5640    15.6710 nb         1 SAH      -0.309000
     24 C10         -6.2920     4.6920    16.7920 ca         1 SAH       0.178900
     25 N3          -5.9100     5.2050    17.9480 nb         1 SAH      -0.212000
     26 C9          -4.6500     5.6310    17.9050 ca         1 SAH       0.133500
     27 HN1         -3.7560    14.2390    25.1090 hn         1 SAH       0.386500
     28 HN2         -4.3010    13.1610    24.0180 hn         1 SAH       0.386500
     29 HA          -4.3170    11.8480    25.8740 h1         1 SAH      -0.000300
     30 HB1         -1.4250    11.6940    24.9410 hc         1 SAH       0.061200
     31 HB2         -2.2800    10.5070    25.9190 hc         1 SAH       0.061200
     32 HG1         -3.9280    10.1870    24.0460 h1         1 SAH       0.052200
     33 HG2         -2.9840    11.3000    23.0470 h1         1 SAH       0.052200
     34 H5'1        -2.4800     9.6710    21.1350 h1         1 SAH       0.070200
     35 H5'2        -1.6930     8.1110    21.3340 h1         1 SAH       0.070200
     36 H4          -4.5220     8.7970    22.2970 h1         1 SAH       0.103700
     37 H3          -3.0540     6.6910    23.2840 h1         1 SAH       0.088700
     38 HO3         -5.1760     5.6570    23.3610 ho         1 SAH       0.522000
     39 H2          -2.4870     5.8830    21.0920 h1         1 SAH       0.048700
     40 HO2         -3.5870     3.9280    20.9600 ho         1 SAH       0.518000
     41 H1          -5.4140     6.1730    20.2850 h2         1 SAH       0.115700
     42 H8          -1.9060     6.9500    18.9450 h5         1 SAH       0.071800
     43 HN61        -4.0200     4.4250    13.7140 hn         1 SAH       0.504500
     44 HN62        -2.6510     5.1510    14.4760 hn         1 SAH       0.504500
     45 H6          -7.3110     4.3240    16.7460 h5         1 SAH       0.044100
@<TRIPOS>BOND
     1     1     2 1   
     2     1    27 1   
     3     1    28 1   
     4     2     3 1   
     5     2     6 1   
     6     2    29 1   
     7     3     4 1   
     8     3    30 1   
     9     3    31 1   
    10     4     5 1   
    11     4    32 1   
    12     4    33 1   
    13     5     9 1   
    14     6     7 1   
    15     6     8 1   
    16     9    10 1   
    17     9    34 1   
    18     9    35 1   
    19    10    11 1   
    20    10    12 1   
    21    10    36 1   
    22    11    16 1   
    23    12    13 1   
    24    12    14 1   
    25    12    37 1   
    26    13    38 1   
    27    14    15 1   
    28    14    16 1   
    29    14    39 1   
    30    15    40 1   
    31    16    17 1   
    32    16    41 1   
    33    17    18 1   
    34    17    26 1   
    35    18    19 2   
    36    18    42 1   
    37    19    20 1   
    38    20    21 ar  
    39    20    26 ar  
    40    21    22 1   
    41    21    23 ar  
    42    22    43 1   
    43    22    44 1   
    44    23    24 ar  
    45    24    25 ar  
    46    24    45 1   
    47    25    26 ar  
@<TRIPOS>SUBSTRUCTURE
     1 SAH         1 TEMP              0 ****  ****    0 ROOT
