@<TRIPOS>MOLECULE
SAH
   45    47     1     0     0
SMALL
No Charge or Current Charge


@<TRIPOS>ATOM
      1 N           -3.4750    13.5630    24.4430 n8         1 SAH      -1.012200
      2 CA          -3.1610    12.4690    25.4350 c3         1 SAH       0.021500
      3 CB          -2.2830    11.3640    24.7820 c3         1 SAH      -0.043400
      4 CG          -2.9650    10.6190    23.6150 c3         1 SAH       0.084600
      5 SD          -1.8730     9.2580    22.9910 ss         1 SAH      -0.463000
      6 C           -2.5660    12.9450    26.8330 c          1 SAH       0.720000
      7 O           -3.3560    13.2930    27.7010 o          1 SAH      -0.725500
      8 OXT         -1.3520    12.9500    27.0000 o          1 SAH      -0.725500
      9 C5          -2.8640     8.6640    21.5380 c3         1 SAH       0.031600
     10 C4          -4.1810     7.9380    21.9350 c5         1 SAH       0.165300
     11 O4          -4.8390     7.4670    20.7340 os         1 SAH      -0.454000
     12 C3          -4.0000     6.6480    22.8000 c5         1 SAH       0.153300
     13 O3          -5.2150     6.1980    23.4140 oh         1 SAH      -0.707000
     14 C2          -3.5620     5.6370    21.7020 c5         1 SAH       0.085300
     15 O2          -3.7950     4.2800    22.1330 oh         1 SAH      -0.704000
     16 C1          -4.4650     6.0880    20.4900 c5         1 SAH       0.277300
     17 N9          -3.9200     5.9660    19.1350 na         1 SAH      -0.288300
     18 C8          -2.5680     6.0100    18.7690 cc         1 SAH       0.414700
     19 N7          -2.4100     5.8410    17.4430 nd         1 SAH      -0.561100
     20 C7          -3.7210     5.6900    16.9800 ca         1 SAH      -0.101600
     21 C6          -4.1910     5.4780    15.6680 ca         1 SAH       0.448900
     22 N6          -3.3610     5.3870    14.5950 nv         1 SAH      -1.068900
     23 N1          -5.5020     5.3420    15.4120 nb         1 SAH      -0.309000
     24 C10         -6.3290     5.4280    16.4830 ca         1 SAH       0.178900
     25 N3          -5.9660     5.6320    17.7730 nb         1 SAH      -0.212000
     26 C9          -4.6430     5.7620    17.9940 ca         1 SAH       0.133500
     27 HN1         -4.1240    14.2310    24.8780 hn         1 SAH       0.386500
     28 HN2         -4.0160    13.1750    23.6610 hn         1 SAH       0.386500
     29 HA          -4.1260    12.0010    25.6710 h1         1 SAH      -0.000300
     30 HB1         -1.3390    11.8000    24.4330 hc         1 SAH       0.061200
     31 HB2         -2.0240    10.6260    25.5500 hc         1 SAH       0.061200
     32 HG1         -3.9150    10.1900    23.9580 h1         1 SAH       0.052200
     33 HG2         -3.1700    11.3150    22.7920 h1         1 SAH       0.052200
     34 H5'1        -3.1130     9.5260    20.9060 h1         1 SAH       0.070200
     35 H5'2        -2.2340     7.9920    20.9450 h1         1 SAH       0.070200
     36 H4          -4.8360     8.6610    22.4400 h1         1 SAH       0.103700
     37 H3          -3.2130     6.7770    23.5570 h1         1 SAH       0.088700
     38 HO3         -5.1650     5.2150    23.3030 ho         1 SAH       0.522000
     39 H2          -2.4960     5.7820    21.4830 h1         1 SAH       0.048700
     40 HO2         -3.3140     3.6790    21.5130 ho         1 SAH       0.518000
     41 H1          -5.3800     5.4810    20.4930 h2         1 SAH       0.115700
     42 H8          -1.7700     6.1650    19.4850 h5         1 SAH       0.071800
     43 HN61        -3.7180     4.9460    13.7520 hn         1 SAH       0.504500
     44 HN62        -2.3690     5.2650    14.7890 hn         1 SAH       0.504500
     45 H6          -7.3940     5.3210    16.2880 h5         1 SAH       0.044100
@<TRIPOS>BOND
     1     1     2 1   
     2     1    27 1   
     3     1    28 1   
     4     2     3 1   
     5     2     6 1   
     6     2    29 1   
     7     3     4 1   
     8     3    30 1   
     9     3    31 1   
    10     4     5 1   
    11     4    32 1   
    12     4    33 1   
    13     5     9 1   
    14     6     7 1   
    15     6     8 1   
    16     9    10 1   
    17     9    34 1   
    18     9    35 1   
    19    10    11 1   
    20    10    12 1   
    21    10    36 1   
    22    11    16 1   
    23    12    13 1   
    24    12    14 1   
    25    12    37 1   
    26    13    38 1   
    27    14    15 1   
    28    14    16 1   
    29    14    39 1   
    30    15    40 1   
    31    16    17 1   
    32    16    41 1   
    33    17    18 1   
    34    17    26 1   
    35    18    19 2   
    36    18    42 1   
    37    19    20 1   
    38    20    21 ar  
    39    20    26 ar  
    40    21    22 1   
    41    21    23 ar  
    42    22    43 1   
    43    22    44 1   
    44    23    24 ar  
    45    24    25 ar  
    46    24    45 1   
    47    25    26 ar  
@<TRIPOS>SUBSTRUCTURE
     1 SAH         1 TEMP              0 ****  ****    0 ROOT
