@<TRIPOS>MOLECULE
SAI
   45    47     1     0     0
SMALL
abcg2


@<TRIPOS>ATOM
      1 N            0.0300     0.8610     6.3210 n8         1 SAI      -0.987200
      2 CA          -1.1160     0.7740     5.4330 c3         1 SAI       0.020500
      3 CB          -0.8980    -0.0820     4.1690 c3         1 SAI      -0.106400
      4 CG           0.1950     0.4760     3.2700 c3         1 SAI       0.146600
      5 SE           0.3890    -0.6090     1.6470 ss         1 SAI      -0.538000
      6 C           -2.3450     0.2080     6.1810 c          1 SAI       0.726000
      7 O           -2.1270    -0.4890     7.1910 o          1 SAI      -0.724000
      8 OXT         -3.4580     0.4660     5.6800 o          1 SAI      -0.724000
      9 C5           1.8510     0.4350     0.8650 c3         1 SAI       0.079600
     10 C4           2.5130    -0.3290    -0.2690 c5         1 SAI       0.176300
     11 O4           1.5390    -0.8810    -1.1610 os         1 SAI      -0.426000
     12 C3           3.3830     0.5770    -1.1330 c5         1 SAI       0.106300
     13 O3           4.3650    -0.2010    -1.7620 oh         1 SAI      -0.704000
     14 C2           2.3530     1.0810    -2.1480 c5         1 SAI       0.078300
     15 O2           2.8880     1.5110    -3.3640 oh         1 SAI      -0.697000
     16 C1           1.5130    -0.1780    -2.3710 c5         1 SAI       0.317300
     17 N9           0.1460     0.0880    -2.7440 na         1 SAI      -0.290300
     18 C8          -0.8310     0.6510    -1.9680 cc         1 SAI       0.426700
     19 N7          -1.9760     0.7520    -2.5730 nd         1 SAI      -0.554100
     20 C7          -1.7500     0.2290    -3.8200 ca         1 SAI      -0.093600
     21 C6          -2.5780     0.0350    -4.9410 ca         1 SAI       0.441900
     22 N6          -3.8610     0.4070    -4.9640 nv         1 SAI      -1.060900
     23 N1          -2.0400    -0.5310    -6.0270 nb         1 SAI      -0.308000
     24 C10         -0.7580    -0.8860    -6.0050 ca         1 SAI       0.172900
     25 N3           0.1130    -0.7570    -5.0190 nb         1 SAI      -0.214000
     26 C9          -0.4360    -0.1940    -3.9470 ca         1 SAI       0.133500
     27 HN1          0.1680    -0.0410     6.7610 hn         1 SAI       0.375000
     28 HN2          0.8740     1.0660     5.8020 hn         1 SAI       0.375000
     29 HA          -1.3650     1.7880     5.0990 h1         1 SAI       0.042700
     30 HB1         -0.6520    -1.1060     4.4730 hc         1 SAI       0.063200
     31 HB2         -1.8390    -0.1270     3.6150 hc         1 SAI       0.063200
     32 HG1         -0.0480     1.5000     2.9720 h1         1 SAI       0.043200
     33 HG2          1.1610     0.4940     3.7790 h1         1 SAI       0.043200
     34 H5'1         1.4630     1.4030     0.5360 h1         1 SAI       0.054700
     35 H5'2         2.5970     0.6250     1.6390 h1         1 SAI       0.054700
     36 H4           3.0950    -1.1570     0.1440 h1         1 SAI       0.105700
     37 H3           3.8200     1.3960    -0.5470 h1         1 SAI       0.054700
     38 HO3          4.6500     0.2660    -2.5570 ho         1 SAI       0.518000
     39 H2           1.7400     1.8610    -1.6810 h1         1 SAI       0.057700
     40 HO2          3.1450     2.4340    -3.2830 ho         1 SAI       0.511000
     41 H1           1.9400    -0.7730    -3.1860 h2         1 SAI       0.117700
     42 H8          -0.6450     0.9530    -0.9470 h5         1 SAI       0.084800
     43 HN61        -4.4440     0.1270    -5.7340 hn         1 SAI       0.500500
     44 HN62        -4.3190     0.7040    -4.1190 hn         1 SAI       0.500500
     45 H6          -0.3860    -1.3430    -6.9150 h5         1 SAI       0.039100
@<TRIPOS>BOND
     1     1     2 1   
     2     1    27 1   
     3     1    28 1   
     4     2     3 1   
     5     2     6 1   
     6     2    29 1   
     7     3     4 1   
     8     3    30 1   
     9     3    31 1   
    10     4     5 1   
    11     4    32 1   
    12     4    33 1   
    13     5     9 1   
    14     6     7 1   
    15     6     8 1   
    16     9    10 1   
    17     9    34 1   
    18     9    35 1   
    19    10    11 1   
    20    10    12 1   
    21    10    36 1   
    22    11    16 1   
    23    12    13 1   
    24    12    14 1   
    25    12    37 1   
    26    13    38 1   
    27    14    15 1   
    28    14    16 1   
    29    14    39 1   
    30    15    40 1   
    31    16    17 1   
    32    16    41 1   
    33    17    18 1   
    34    17    26 1   
    35    18    19 2   
    36    18    42 1   
    37    19    20 1   
    38    20    21 ar  
    39    20    26 ar  
    40    21    22 1   
    41    21    23 ar  
    42    22    43 1   
    43    22    44 1   
    44    23    24 ar  
    45    24    25 ar  
    46    24    45 1   
    47    25    26 ar  
@<TRIPOS>SUBSTRUCTURE
     1 SAI         1 TEMP              0 ****  ****    0 ROOT
