@<TRIPOS>MOLECULE
SAI
   45    47     1     0     0
SMALL
No Charge or Current Charge


@<TRIPOS>ATOM
      1 N           -0.5730     1.1450     5.8430 n8         1 SAI      -0.987200
      2 CA          -1.5540     0.5640     4.8540 c3         1 SAI       0.020500
      3 CB          -0.8240    -0.3710     3.8540 c3         1 SAI      -0.106400
      4 CG           0.1820     0.3470     2.9300 c3         1 SAI       0.146600
      5 SE           0.9170    -0.8530     1.7270 ss         1 SAI      -0.538000
      6 C           -2.8270    -0.1590     5.4690 c          1 SAI       0.726000
      7 O           -2.6540    -1.1210     6.2080 o          1 SAI      -0.724000
      8 OXT         -3.9330     0.3110     5.2310 o          1 SAI      -0.724000
      9 C5           2.0360     0.2900     0.7820 c3         1 SAI       0.079600
     10 C4           2.8170    -0.4170    -0.3630 c5         1 SAI       0.176300
     11 O4           1.8970    -0.8920    -1.3800 os         1 SAI      -0.426000
     12 C3           3.7960     0.5170    -1.1440 c5         1 SAI       0.106300
     13 O3           4.7570    -0.1950    -1.9340 oh         1 SAI      -0.704000
     14 C2           2.7930     1.2580    -2.0730 c5         1 SAI       0.078300
     15 O2           3.4750     1.8280    -3.2100 oh         1 SAI      -0.697000
     16 C1           1.7930     0.0940    -2.4350 c5         1 SAI       0.317300
     17 N9           0.3830     0.4320    -2.6460 na         1 SAI      -0.290300
     18 C8          -0.3310     1.4620    -2.0220 cc         1 SAI       0.426700
     19 N7          -1.6010     1.5210    -2.4650 nd         1 SAI      -0.554100
     20 C7          -1.6640     0.4800    -3.3960 ca         1 SAI      -0.093600
     21 C6          -2.7480     0.0490    -4.1890 ca         1 SAI       0.441900
     22 N6          -3.9720     0.6400    -4.1460 nv         1 SAI      -1.060900
     23 N1          -2.6230    -0.9880    -5.0320 nb         1 SAI      -0.308000
     24 C10         -1.4030    -1.5780    -5.0730 ca         1 SAI       0.172900
     25 N3          -0.3100    -1.2300    -4.3530 nb         1 SAI      -0.214000
     26 C9          -0.4720    -0.1880    -3.5130 ca         1 SAI       0.133500
     27 HN1         -0.2380     0.3940     6.4590 hn         1 SAI       0.375000
     28 HN2          0.2690     1.4650     5.3530 hn         1 SAI       0.375000
     29 HA          -1.9450     1.4080     4.2700 h1         1 SAI       0.042700
     30 HB1         -0.3130    -1.1740     4.4000 hc         1 SAI       0.063200
     31 HB2         -1.5770    -0.8560     3.2210 hc         1 SAI       0.063200
     32 HG1         -0.3280     1.1440     2.3740 h1         1 SAI       0.043200
     33 HG2          0.9900     0.7960     3.5230 h1         1 SAI       0.043200
     34 H5'1         1.4340     1.1120     0.3760 h1         1 SAI       0.054700
     35 H5'2         2.7610     0.7220     1.4850 h1         1 SAI       0.054700
     36 H4           3.3510    -1.2740     0.0700 h1         1 SAI       0.105700
     37 H3           4.3060     1.2180    -0.4680 h1         1 SAI       0.054700
     38 HO3          4.8150     0.3480    -2.7610 ho         1 SAI       0.518000
     39 H2           2.2890     2.0520    -1.5050 h1         1 SAI       0.057700
     40 HO2          2.8600     2.4660    -3.6460 ho         1 SAI       0.511000
     41 H1           2.1270    -0.3730    -3.3710 h2         1 SAI       0.117700
     42 H8           0.1090     2.1150    -1.2770 h5         1 SAI       0.084800
     43 HN61        -4.7670     0.1190    -4.5060 hn         1 SAI       0.500500
     44 HN62        -4.1530     1.2740    -3.3710 hn         1 SAI       0.500500
     45 H6          -1.2900    -2.4190    -5.7550 h5         1 SAI       0.039100
@<TRIPOS>BOND
     1     1     2 1   
     2     1    27 1   
     3     1    28 1   
     4     2     3 1   
     5     2     6 1   
     6     2    29 1   
     7     3     4 1   
     8     3    30 1   
     9     3    31 1   
    10     4     5 1   
    11     4    32 1   
    12     4    33 1   
    13     5     9 1   
    14     6     7 1   
    15     6     8 1   
    16     9    10 1   
    17     9    34 1   
    18     9    35 1   
    19    10    11 1   
    20    10    12 1   
    21    10    36 1   
    22    11    16 1   
    23    12    13 1   
    24    12    14 1   
    25    12    37 1   
    26    13    38 1   
    27    14    15 1   
    28    14    16 1   
    29    14    39 1   
    30    15    40 1   
    31    16    17 1   
    32    16    41 1   
    33    17    18 1   
    34    17    26 1   
    35    18    19 2   
    36    18    42 1   
    37    19    20 1   
    38    20    21 ar  
    39    20    26 ar  
    40    21    22 1   
    41    21    23 ar  
    42    22    43 1   
    43    22    44 1   
    44    23    24 ar  
    45    24    25 ar  
    46    24    45 1   
    47    25    26 ar  
@<TRIPOS>SUBSTRUCTURE
     1 SAI         1 TEMP              0 ****  ****    0 ROOT
