@<TRIPOS>MOLECULE
SAJ
   62    64     1     0     0
SMALL
No Charge or Current Charge


@<TRIPOS>ATOM
      1 N1           3.5540     0.4680    -2.4680 n          1 SAJ      -0.306000
      2 C2           4.8090     0.9370    -2.0100 c          1 SAJ       0.622000
      3 N3           5.6970     1.3060    -2.9740 ns         1 SAJ      -0.470500
      4 C4           5.5400     1.2750    -4.3180 c          1 SAJ       0.600200
      5 C5           4.2410     0.7700    -4.7400 cc         1 SAJ      -0.417200
      6 C6           3.2840     0.3810    -3.8330 cd         1 SAJ       0.038600
      7 O2           5.1380     1.0060    -0.8380 o          1 SAJ      -0.536000
      8 O4           6.4160     1.6350    -5.0840 o          1 SAJ      -0.567000
      9 C1C          2.4690     0.0890    -1.5160 c5         1 SAJ       0.329700
     10 C2C          2.6770    -1.4220    -1.0980 c5         1 SAJ       0.093300
     11 O2C          1.4730    -2.2040    -1.2840 oh         1 SAJ      -0.734000
     12 C3C          3.0760    -1.2370     0.4070 c5         1 SAJ       0.087300
     13 C4C          2.1650    -0.0200     0.7800 c5         1 SAJ       0.168300
     14 O4C          2.4420     0.8810    -0.3080 os         1 SAJ      -0.395000
     15 O3C          2.9170    -2.4380     1.1850 oh         1 SAJ      -0.706000
     16 C5C          2.4660     0.6840     2.1430 c3         1 SAJ       0.228600
     17 O5C          1.3340     0.6750     3.0420 os         1 SAJ      -0.559400
     18 PA           0.6190    -0.7000     3.4870 p5         1 SAJ       1.453800
     19 O1A          1.5880    -1.8140     3.2830 o          1 SAJ      -0.850500
     20 O2A          0.1420    -0.5990     4.8970 o          1 SAJ      -0.850500
     21 O3A         -0.5780    -0.6410     2.4660 os         1 SAJ      -0.692800
     22 PB          -0.9940    -2.0520     1.9150 p5         1 SAJ       1.467800
     23 O1B         -0.1650    -2.4410     0.7380 o          1 SAJ      -0.840500
     24 O2B         -1.1040    -3.1160     2.9540 o          1 SAJ      -0.840500
     25 O1          -2.4780    -1.6610     1.4480 os         1 SAJ      -0.600400
     26 C1          -2.6880    -1.1270     0.1400 c6         1 SAJ       0.432300
     27 C9          -2.1010     0.3060    -0.1020 c6         1 SAJ       0.075700
     28 N2          -2.2830     0.6970    -1.5250 ns         1 SAJ      -0.465900
     29 C7          -1.4400     1.4860    -2.2690 c          1 SAJ       0.601100
     30 O7          -0.3660     1.8920    -1.8530 o          1 SAJ      -0.648100
     31 C8          -1.9410     1.7940    -3.6770 c3         1 SAJ      -0.179100
     32 C3          -2.8270     1.2910     0.8700 c6         1 SAJ       0.146300
     33 O3          -2.3910     2.6520     0.7090 oh         1 SAJ      -0.687000
     34 C10         -4.3760     1.2400     0.6740 c6         1 SAJ       0.131300
     35 O8          -5.0110     2.1200     1.6290 oh         1 SAJ      -0.806000
     36 C11         -4.8880    -0.2250     0.7870 c6         1 SAJ      -0.007700
     37 O5          -4.1140    -1.1040    -0.1000 os         1 SAJ      -0.454000
     38 C12         -6.4300    -0.2850     0.5270 c          1 SAJ       0.737000
     39 O6A         -7.1180    -0.3650     1.5370 o          1 SAJ      -0.734000
     40 O6B         -6.8150    -0.8030    -0.5150 o          1 SAJ      -0.734000
     41 H1           6.5870     1.6390    -2.6430 hn         1 SAJ       0.334500
     42 H2           4.0750     0.7230    -5.8100 ha         1 SAJ       0.209000
     43 H3           2.2970    -0.0020    -4.0900 h4         1 SAJ       0.205000
     44 H4           1.5210     0.2040    -2.0530 h2         1 SAJ       0.066700
     45 H5           3.5030    -1.8790    -1.6610 h1         1 SAJ       0.047700
     46 H6           0.9970    -2.2980    -0.3960 ho         1 SAJ       0.525000
     47 H7           4.1260    -0.9170     0.4680 h1         1 SAJ       0.081700
     48 H8           1.1040    -0.2730     0.7160 h1         1 SAJ       0.079700
     49 H9           2.3890    -2.2090     2.0170 ho         1 SAJ       0.495000
     50 H10          3.3250     0.1920     2.6170 h1         1 SAJ       0.026700
     51 H11          2.7650     1.7210     1.9470 h1         1 SAJ       0.026700
     52 H14         -2.2320    -1.8100    -0.5940 h2         1 SAJ       0.066700
     53 H15         -1.0270     0.3020     0.1200 h1         1 SAJ       0.090700
     54 H16         -3.1420     0.4150    -1.9820 hn         1 SAJ       0.319500
     55 H17         -2.9310     2.2600    -3.6110 hc         1 SAJ       0.038033
     56 H18         -1.2410     2.4120    -4.2520 hc         1 SAJ       0.038033
     57 H19         -2.1630     0.8520    -4.1930 hc         1 SAJ       0.038033
     58 H20         -2.6140     0.9620     1.8980 h1         1 SAJ       0.080700
     59 H21         -3.1460     3.1760     1.0620 ho         1 SAJ       0.433000
     60 H22         -4.6110     1.5920    -0.3410 h1         1 SAJ      -0.000300
     61 H23         -5.8760     1.7150     1.8900 ho         1 SAJ       0.571000
     62 H24         -4.7430    -0.5700     1.8210 h1         1 SAJ       0.098700
@<TRIPOS>BOND
     1     1     2 1   
     2     1     6 1   
     3     1     9 1   
     4     2     3 1   
     5     2     7 2   
     6     3     4 1   
     7     3    41 1   
     8     4     5 1   
     9     4     8 2   
    10     5     6 2   
    11     5    42 1   
    12     6    43 1   
    13     9    10 1   
    14     9    14 1   
    15     9    44 1   
    16    10    11 1   
    17    10    12 1   
    18    10    45 1   
    19    11    46 1   
    20    12    13 1   
    21    12    15 1   
    22    12    47 1   
    23    13    14 1   
    24    13    16 1   
    25    13    48 1   
    26    15    49 1   
    27    16    17 1   
    28    16    50 1   
    29    16    51 1   
    30    17    18 1   
    31    18    19 1   
    32    18    20 1   
    33    18    21 1   
    34    21    22 1   
    35    22    23 1   
    36    22    24 1   
    37    22    25 1   
    38    25    26 1   
    39    26    27 1   
    40    26    37 1   
    41    26    52 1   
    42    27    28 1   
    43    27    32 1   
    44    27    53 1   
    45    28    29 1   
    46    28    54 1   
    47    29    30 2   
    48    29    31 1   
    49    31    55 1   
    50    31    56 1   
    51    31    57 1   
    52    32    33 1   
    53    32    34 1   
    54    32    58 1   
    55    33    59 1   
    56    34    35 1   
    57    34    36 1   
    58    34    60 1   
    59    35    61 1   
    60    36    37 1   
    61    36    38 1   
    62    36    62 1   
    63    38    39 1   
    64    38    40 1   
@<TRIPOS>SUBSTRUCTURE
     1 SAJ         1 TEMP              0 ****  ****    0 ROOT
