@<TRIPOS>MOLECULE
SAJ
   62    64     1     0     0
SMALL
bcc


@<TRIPOS>ATOM
      1 N1           5.7180     0.6610    -1.7600 n          1 SAJ      -0.373000
      2 C2           6.1170     1.2630    -0.5830 c          1 SAJ       0.831500
      3 N3           6.5300     2.5620    -0.7140 ns         1 SAJ      -0.604500
      4 C4           6.5980     3.3270    -1.8690 c          1 SAJ       0.742700
      5 C5           6.1580     2.6220    -3.0470 cc         1 SAJ      -0.367200
      6 C6           5.7400     1.3510    -2.9390 cd         1 SAJ       0.088600
      7 O2           6.1120     0.6930     0.4860 o          1 SAJ      -0.611500
      8 O4           6.9960     4.4760    -1.8280 o          1 SAJ      -0.642500
      9 C1C          5.2050    -0.7030    -1.7400 c5         1 SAJ       0.306500
     10 C2C          6.1440    -1.7790    -1.1630 c5         1 SAJ       0.070100
     11 O2C          6.2110    -2.8280    -2.0950 oh         1 SAJ      -0.611800
     12 C3C          5.4120    -2.2400     0.1120 c5         1 SAJ       0.064100
     13 C4C          3.9580    -1.8850    -0.1880 c5         1 SAJ       0.145100
     14 O4C          4.0110    -0.7350    -1.0140 os         1 SAJ      -0.348600
     15 O3C          5.5310    -3.6230     0.3340 oh         1 SAJ      -0.583800
     16 C5C          3.1630    -1.5890     1.0580 c3         1 SAJ       0.205400
     17 O5C          1.8130    -1.3680     0.7160 os         1 SAJ      -0.536200
     18 PA           0.7540    -1.1730     1.9660 p5         1 SAJ       1.453800
     19 O1A          0.6190    -2.4650     2.7090 o          1 SAJ      -0.850500
     20 O2A          1.0780     0.0940     2.6910 o          1 SAJ      -0.850500
     21 O3A         -0.5330    -0.9460     0.9710 os         1 SAJ      -0.692800
     22 PB          -2.0770    -1.2750     1.4310 p5         1 SAJ       1.467800
     23 O1B         -2.4800    -2.6280     0.9420 o          1 SAJ      -0.840500
     24 O2B         -2.2690    -0.8660     2.8550 o          1 SAJ      -0.840500
     25 O1          -2.7360    -0.1250     0.4310 os         1 SAJ      -0.577200
     26 C1          -4.0050    -0.3350    -0.1080 c6         1 SAJ       0.385900
     27 C9          -4.3160     0.8410    -1.0380 c6         1 SAJ       0.075700
     28 N2          -5.5010     0.5310    -1.8020 ns         1 SAJ      -0.532900
     29 C7          -5.6210     0.7290    -3.1280 c          1 SAJ       0.668100
     30 O7          -4.7180     1.1580    -3.8320 o          1 SAJ      -0.648100
     31 C8          -6.9670     0.3670    -3.7050 c3         1 SAJ      -0.179100
     32 C3          -4.4780     2.1220    -0.2190 c6         1 SAJ       0.123100
     33 O3          -4.8440     3.1620    -1.0920 oh         1 SAJ      -0.624800
     34 C10         -5.5030     1.9110     0.8860 c6         1 SAJ       0.108100
     35 O8          -5.5370     3.0540     1.7020 oh         1 SAJ      -0.683800
     36 C11         -5.1510     0.6630     1.7110 c6         1 SAJ      -0.030900
     37 O5          -4.9900    -0.4660     0.8740 os         1 SAJ      -0.407600
     38 C12         -6.2430     0.3790     2.7560 c          1 SAJ       0.947600
     39 O6A         -6.6010     1.3970     3.4110 o          1 SAJ      -0.839300
     40 O6B         -6.6730    -0.7680     2.8880 o          1 SAJ      -0.839300
     41 H1           6.8240     3.0080     0.1470 hn         1 SAJ       0.334500
     42 H2           6.1640     3.1190    -4.0050 ha         1 SAJ       0.159000
     43 H3           5.3990     0.8010    -3.8040 h4         1 SAJ       0.155000
     44 H4           5.0260    -0.9460    -2.7920 h2         1 SAJ       0.066700
     45 H5           7.1420    -1.3830    -0.9490 h1         1 SAJ       0.047700
     46 H6           6.1850    -3.6520    -1.5890 ho         1 SAJ       0.426000
     47 H7           5.7720    -1.6700     0.9710 h1         1 SAJ       0.081700
     48 H8           3.4910    -2.7190    -0.7330 h1         1 SAJ       0.079700
     49 H9           6.2870    -3.7820     0.9070 ho         1 SAJ       0.396000
     50 H10          3.2690    -2.4460     1.7340 h1         1 SAJ       0.026700
     51 H11          3.5970    -0.7160     1.5610 h1         1 SAJ       0.026700
     52 H14         -4.0380    -1.2700    -0.6770 h2         1 SAJ       0.066700
     53 H15         -3.4930     0.9590    -1.7450 h1         1 SAJ       0.090700
     54 H16         -6.3000     0.1710    -1.3060 hn         1 SAJ       0.319500
     55 H17         -7.4330     1.2600    -4.1220 hc         1 SAJ       0.038033
     56 H18         -6.8330    -0.3400    -4.5230 hc         1 SAJ       0.038033
     57 H19         -7.6520    -0.0680    -2.9800 hc         1 SAJ       0.038033
     58 H20         -3.5090     2.3380     0.2560 h1         1 SAJ       0.080700
     59 H21         -4.9210     3.9680    -0.5710 ho         1 SAJ       0.394000
     60 H22         -6.4880     1.7440     0.4130 h1         1 SAJ      -0.000300
     61 H23         -5.9900     2.7310     2.5150 ho         1 SAJ       0.472000
     62 H24         -4.2210     0.8640     2.2610 h1         1 SAJ       0.098700
@<TRIPOS>BOND
     1     1     2 1   
     2     1     6 1   
     3     1     9 1   
     4     2     3 1   
     5     2     7 2   
     6     3     4 1   
     7     3    41 1   
     8     4     5 1   
     9     4     8 2   
    10     5     6 2   
    11     5    42 1   
    12     6    43 1   
    13     9    10 1   
    14     9    14 1   
    15     9    44 1   
    16    10    11 1   
    17    10    12 1   
    18    10    45 1   
    19    11    46 1   
    20    12    13 1   
    21    12    15 1   
    22    12    47 1   
    23    13    14 1   
    24    13    16 1   
    25    13    48 1   
    26    15    49 1   
    27    16    17 1   
    28    16    50 1   
    29    16    51 1   
    30    17    18 1   
    31    18    19 1   
    32    18    20 1   
    33    18    21 1   
    34    21    22 1   
    35    22    23 1   
    36    22    24 1   
    37    22    25 1   
    38    25    26 1   
    39    26    27 1   
    40    26    37 1   
    41    26    52 1   
    42    27    28 1   
    43    27    32 1   
    44    27    53 1   
    45    28    29 1   
    46    28    54 1   
    47    29    30 2   
    48    29    31 1   
    49    31    55 1   
    50    31    56 1   
    51    31    57 1   
    52    32    33 1   
    53    32    34 1   
    54    32    58 1   
    55    33    59 1   
    56    34    35 1   
    57    34    36 1   
    58    34    60 1   
    59    35    61 1   
    60    36    37 1   
    61    36    38 1   
    62    36    62 1   
    63    38    39 1   
    64    38    40 1   
@<TRIPOS>SUBSTRUCTURE
     1 SAJ         1 TEMP              0 ****  ****    0 ROOT
