@<TRIPOS>MOLECULE
SAK
   35    37     1     0     0
SMALL
No Charge or Current Charge


@<TRIPOS>ATOM
      1 CAG         -3.4050    -0.3450    -1.3400 ca         1 SAK      -0.043000
      2 CAE         -4.7460     0.0480    -1.1810 ca         1 SAK      -0.180500
      3 CAO         -5.1710     0.6370     0.0170 ca         1 SAK       0.154100
      4 OAC         -6.4720     1.0130     0.1590 oh         1 SAK      -0.530100
      5 CAF         -4.2570     0.8370     1.0640 ca         1 SAK      -0.180500
      6 CAH         -2.9150     0.4450     0.9100 ca         1 SAK      -0.043000
      7 CAR         -2.4810    -0.1490    -0.2940 ca         1 SAK      -0.137300
      8 CAU         -1.0220    -0.5830    -0.4680 c6         1 SAK       0.239600
      9 OAM         -0.1680     0.5350    -0.1650 os         1 SAK      -0.336100
     10 CAK         -0.6520    -1.7760     0.4170 c6         1 SAK      -0.206400
     11 CAN          0.8140    -2.1010     0.2150 c          1 SAK       0.615700
     12 OAB          1.2150    -3.2560     0.1390 o          1 SAK      -0.581100
     13 CAT          1.7380    -0.9400     0.0660 ca         1 SAK      -0.423600
     14 CAS          1.1920     0.3440    -0.0960 ca         1 SAK       0.261100
     15 CAJ          2.0250     1.4610    -0.1820 ca         1 SAK      -0.251000
     16 CAP          3.4140     1.3130    -0.1350 ca         1 SAK       0.253100
     17 OAL          4.1880     2.4500    -0.2320 os         1 SAK      -0.333100
     18 CAA          5.6250     2.4040    -0.1950 c3         1 SAK       0.147900
     19 CAI          3.9680     0.0280     0.0020 ca         1 SAK      -0.314000
     20 CAQ          3.1320    -1.0860     0.1010 ca         1 SAK       0.293100
     21 OAD          3.6920    -2.3120     0.2350 oh         1 SAK      -0.541100
     22 HAG         -3.0880    -0.8030    -2.2750 ha         1 SAK       0.118500
     23 HAE         -5.4550    -0.1070    -1.9910 ha         1 SAK       0.124500
     24 HOAC        -6.5870     1.4030     1.0520 ho         1 SAK       0.468000
     25 HAF         -4.5770     1.2940     1.9970 ha         1 SAK       0.124500
     26 HAH         -2.2130     0.6070     1.7250 ha         1 SAK       0.118500
     27 HAU         -0.8530    -0.8590    -1.5200 h1         1 SAK       0.058700
     28 HAK         -0.7620    -1.4470     1.4570 hc         1 SAK       0.087700
     29 HAKA        -1.2760    -2.6620     0.2480 hc         1 SAK       0.087700
     30 HAJ          1.5920     2.4490    -0.2960 ha         1 SAK       0.148000
     31 HAA          6.0180     1.8010    -1.0230 h1         1 SAK       0.047700
     32 HAAA         6.0390     3.4160    -0.2860 h1         1 SAK       0.047700
     33 HAAB         5.9780     1.9770     0.7520 h1         1 SAK       0.047700
     34 HAI          5.0420    -0.1250     0.0360 ha         1 SAK       0.139000
     35 HOAD         2.9350    -2.9500     0.2200 ho         1 SAK       0.519000
@<TRIPOS>BOND
     1     1     2 ar  
     2     1     7 ar  
     3     1    22 1   
     4     2     3 ar  
     5     2    23 1   
     6     3     4 1   
     7     3     5 ar  
     8     4    24 1   
     9     5     6 ar  
    10     5    25 1   
    11     6     7 ar  
    12     6    26 1   
    13     7     8 1   
    14     8     9 1   
    15     8    10 1   
    16     8    27 1   
    17     9    14 1   
    18    10    11 1   
    19    10    28 1   
    20    10    29 1   
    21    11    12 2   
    22    11    13 1   
    23    13    14 ar  
    24    13    20 ar  
    25    14    15 ar  
    26    15    16 ar  
    27    15    30 1   
    28    16    17 1   
    29    16    19 ar  
    30    17    18 1   
    31    18    31 1   
    32    18    32 1   
    33    18    33 1   
    34    19    20 ar  
    35    19    34 1   
    36    20    21 1   
    37    21    35 1   
@<TRIPOS>SUBSTRUCTURE
     1 SAK         1 TEMP              0 ****  ****    0 ROOT
