@<TRIPOS>MOLECULE
SAK
   35    37     1     0     0
SMALL
abcg2


@<TRIPOS>ATOM
      1 CAG         -3.2870    -0.1630    -1.3590 ca         1 SAK      -0.043000
      2 CAE         -4.6140     0.2130    -1.2290 ca         1 SAK      -0.180500
      3 CAO         -5.0920     0.6490     0.0040 ca         1 SAK       0.154100
      4 OAC         -6.3860     1.0090     0.0860 oh         1 SAK      -0.530100
      5 CAF         -4.2270     0.6990     1.0970 ca         1 SAK      -0.180500
      6 CAH         -2.9050     0.3140     0.9520 ca         1 SAK      -0.043000
      7 CAR         -2.4160    -0.1230    -0.2760 ca         1 SAK      -0.137300
      8 CAU         -0.9880    -0.5520    -0.4310 c6         1 SAK       0.239600
      9 OAM         -0.1610     0.5680    -0.0930 os         1 SAK      -0.336100
     10 CAK         -0.6320    -1.7540     0.4280 c6         1 SAK      -0.206400
     11 CAN          0.8360    -2.0620     0.3400 c          1 SAK       0.615700
     12 OAB          1.2660    -3.2040     0.5070 o          1 SAK      -0.581100
     13 CAT          1.7010    -0.9330     0.0990 ca         1 SAK      -0.423600
     14 CAS          1.1640     0.3620    -0.0680 ca         1 SAK       0.261100
     15 CAJ          1.9800     1.4630    -0.1990 ca         1 SAK      -0.251000
     16 CAP          3.3700     1.2890    -0.1700 ca         1 SAK       0.253100
     17 OAL          4.0860     2.4050    -0.3050 os         1 SAK      -0.333100
     18 CAA          5.5020     2.3290    -0.3030 c3         1 SAK       0.147900
     19 CAI          3.9400     0.0260    -0.0230 ca         1 SAK      -0.314000
     20 CAQ          3.1080    -1.0770     0.1130 ca         1 SAK       0.293100
     21 OAD          3.6660    -2.2710     0.2690 oh         1 SAK      -0.541100
     22 HAG         -2.9260    -0.4920    -2.3260 ha         1 SAK       0.118500
     23 HAE         -5.2800     0.1750    -2.0820 ha         1 SAK       0.124500
     24 HOAC        -6.6040     1.2880     0.9820 ho         1 SAK       0.468000
     25 HAF         -4.5860     1.0380     2.0620 ha         1 SAK       0.124500
     26 HAH         -2.2540     0.3630     1.8160 ha         1 SAK       0.118500
     27 HAU         -0.8010    -0.8070    -1.4810 h1         1 SAK       0.058700
     28 HAK         -0.8720    -1.5640     1.4810 hc         1 SAK       0.087700
     29 HAKA        -1.2150    -2.6210     0.1160 hc         1 SAK       0.087700
     30 HAJ          1.5580     2.4500    -0.3350 ha         1 SAK       0.148000
     31 HAA          5.8760     1.7180    -1.1270 h1         1 SAK       0.047700
     32 HAAA         5.8600     3.3470    -0.4290 h1         1 SAK       0.047700
     33 HAAB         5.8840     1.9330     0.6400 h1         1 SAK       0.047700
     34 HAI          5.0110    -0.1240    -0.0070 ha         1 SAK       0.139000
     35 HOAD         2.9420    -2.9300     0.3830 ho         1 SAK       0.519000
@<TRIPOS>BOND
     1     1     2 ar  
     2     1     7 ar  
     3     1    22 1   
     4     2     3 ar  
     5     2    23 1   
     6     3     4 1   
     7     3     5 ar  
     8     4    24 1   
     9     5     6 ar  
    10     5    25 1   
    11     6     7 ar  
    12     6    26 1   
    13     7     8 1   
    14     8     9 1   
    15     8    10 1   
    16     8    27 1   
    17     9    14 1   
    18    10    11 1   
    19    10    28 1   
    20    10    29 1   
    21    11    12 2   
    22    11    13 1   
    23    13    14 ar  
    24    13    20 ar  
    25    14    15 ar  
    26    15    16 ar  
    27    15    30 1   
    28    16    17 1   
    29    16    19 ar  
    30    17    18 1   
    31    18    31 1   
    32    18    32 1   
    33    18    33 1   
    34    19    20 ar  
    35    19    34 1   
    36    20    21 1   
    37    21    35 1   
@<TRIPOS>SUBSTRUCTURE
     1 SAK         1 TEMP              0 ****  ****    0 ROOT
