@<TRIPOS>MOLECULE
SAL
   15    15     1     0     0
SMALL
No Charge or Current Charge


@<TRIPOS>ATOM
      1 C1           0.1560    -0.1210     1.6700 c          1 SAL       0.723600
      2 O1          -0.9440    -0.1690     2.2060 o          1 SAL      -0.703000
      3 O2           1.2050    -0.1070     2.2950 o          1 SAL      -0.703000
      4 C7           0.2090    -0.0770     0.1570 ca         1 SAL      -0.269600
      5 C2          -0.9670    -0.0910    -0.6270 ca         1 SAL       0.209100
      6 C3          -0.9000    -0.0500    -2.0280 ca         1 SAL      -0.217000
      7 C4           0.3430     0.0050    -2.6750 ca         1 SAL      -0.084000
      8 C5           1.5190     0.0190    -1.9130 ca         1 SAL      -0.213000
      9 C6           1.4570    -0.0210    -0.5090 ca         1 SAL      -0.035000
     10 O3          -2.1860    -0.1440    -0.0340 oh         1 SAL      -0.633100
     11 H3          -1.8140    -0.0610    -2.6150 ha         1 SAL       0.098000
     12 H4           0.3940     0.0370    -3.7610 ha         1 SAL       0.077000
     13 H5           2.4850     0.0620    -2.4100 ha         1 SAL       0.085000
     14 H6           2.3870    -0.0090     0.0570 ha         1 SAL       0.116000
     15 HO2         -1.9740    -0.1650     0.9440 ho         1 SAL       0.547000
@<TRIPOS>BOND
     1     1     2 1   
     2     1     3 1   
     3     1     4 1   
     4     4     5 ar  
     5     4     9 ar  
     6     5     6 ar  
     7     5    10 1   
     8     6     7 ar  
     9     6    11 1   
    10     7     8 ar  
    11     7    12 1   
    12     8     9 ar  
    13     8    13 1   
    14     9    14 1   
    15    10    15 1   
@<TRIPOS>SUBSTRUCTURE
     1 SAL         1 TEMP              0 ****  ****    0 ROOT
