@<TRIPOS>MOLECULE
SAL
   15    15     1     0     0
SMALL
bcc


@<TRIPOS>ATOM
      1 C1           0.1600    -0.1200     1.6420 c          1 SAL       0.934200
      2 O1          -1.0100    -0.1640     2.1400 o          1 SAL      -0.808300
      3 O2           1.2080    -0.1110     2.2920 o          1 SAL      -0.808300
      4 C7           0.2240    -0.0770     0.1370 ca         1 SAL      -0.269600
      5 C2          -0.9640    -0.0920    -0.6210 ca         1 SAL       0.209100
      6 C3          -0.8910    -0.0500    -2.0180 ca         1 SAL      -0.235000
      7 C4           0.3400     0.0040    -2.6490 ca         1 SAL      -0.102000
      8 C5           1.5200     0.0200    -1.9090 ca         1 SAL      -0.231000
      9 C6           1.4470    -0.0210    -0.5270 ca         1 SAL      -0.053000
     10 O3          -2.1540    -0.1450    -0.0270 oh         1 SAL      -0.594100
     11 H3          -1.8050    -0.0620    -2.5980 ha         1 SAL       0.116000
     12 H4           0.3780     0.0350    -3.7310 ha         1 SAL       0.095000
     13 H5           2.4790     0.0640    -2.4080 ha         1 SAL       0.103000
     14 H6           2.3550    -0.0100     0.0630 ha         1 SAL       0.134000
     15 HO2         -1.9180    -0.1620     0.9710 ho         1 SAL       0.508000
@<TRIPOS>BOND
     1     1     2 1   
     2     1     3 1   
     3     1     4 1   
     4     4     5 ar  
     5     4     9 ar  
     6     5     6 ar  
     7     5    10 1   
     8     6     7 ar  
     9     6    11 1   
    10     7     8 ar  
    11     7    12 1   
    12     8     9 ar  
    13     8    13 1   
    14     9    14 1   
    15    10    15 1   
@<TRIPOS>SUBSTRUCTURE
     1 SAL         1 TEMP              0 ****  ****    0 ROOT
