@<TRIPOS>MOLECULE
SAN
   19    19     1     0     0
SMALL
No Charge or Current Charge


@<TRIPOS>ATOM
      1 C1           0.0490     0.0020     2.6770 ca         1 SAN       0.373000
      2 N1           0.0870     0.0290     4.0410 nv         1 SAN      -1.090000
      3 C2          -1.1820    -0.0360     2.0140 ca         1 SAN      -0.218500
      4 C3          -1.2280    -0.0640     0.6100 ca         1 SAN       0.042500
      5 C4          -0.0290    -0.0520    -0.1290 ca         1 SAN      -0.346500
      6 C5           1.2110    -0.0150     0.5420 ca         1 SAN       0.042500
      7 C6           1.2420     0.0120     1.9460 ca         1 SAN      -0.218500
      8 S           -0.0860    -0.0900    -1.9160 sy         1 SAN       1.134600
      9 N2          -0.2310     1.5000    -2.2630 n8         1 SAN      -0.997100
     10 O1           1.2250    -0.4480    -2.4510 o          1 SAN      -0.550500
     11 O2          -1.3320    -0.7000    -2.3780 o          1 SAN      -0.550500
     12 HN11         0.9650     0.2470     4.5080 hn         1 SAN       0.472500
     13 HN12        -0.7690     0.2120     4.5600 hn         1 SAN       0.472500
     14 H2          -2.1080    -0.0460     2.5810 ha         1 SAN       0.117000
     15 H3          -2.1930    -0.0920     0.1050 ha         1 SAN       0.133500
     16 H5           2.1480    -0.0090    -0.0140 ha         1 SAN       0.133500
     17 H6           2.1980     0.0390     2.4600 ha         1 SAN       0.117000
     18 HN21         0.5400     1.6240    -2.9150 hn         1 SAN       0.466500
     19 HN22         0.1000     1.9350    -1.4060 hn         1 SAN       0.466500
@<TRIPOS>BOND
     1     1     2 1   
     2     1     3 ar  
     3     1     7 ar  
     4     2    12 1   
     5     2    13 1   
     6     3     4 ar  
     7     3    14 1   
     8     4     5 ar  
     9     4    15 1   
    10     5     6 ar  
    11     5     8 1   
    12     6     7 ar  
    13     6    16 1   
    14     7    17 1   
    15     8     9 1   
    16     8    10 2   
    17     8    11 2   
    18     9    18 1   
    19     9    19 1   
@<TRIPOS>SUBSTRUCTURE
     1 SAN         1 TEMP              0 ****  ****    0 ROOT
