@<TRIPOS>MOLECULE
SAN
   19    19     1     0     0
SMALL
bcc


@<TRIPOS>ATOM
      1 C1           0.0280    -0.0290     2.7140 ca         1 SAN       0.234600
      2 N1           0.0080    -0.0610     4.0710 nv         1 SAN      -0.841200
      3 C2          -1.1720     0.0020     1.9780 ca         1 SAN      -0.236500
      4 C3          -1.1530    -0.0040     0.6020 ca         1 SAN       0.024500
      5 C4           0.0610    -0.0440    -0.0800 ca         1 SAN      -0.346500
      6 C5           1.2580    -0.0780     0.6290 ca         1 SAN       0.024500
      7 C6           1.2420    -0.0680     2.0090 ca         1 SAN      -0.236500
      8 S            0.0700    -0.0440    -1.8310 sy         1 SAN       1.276200
      9 N2          -0.2600     1.5450    -2.1680 n8         1 SAN      -0.886700
     10 O1           1.3980    -0.4490    -2.2790 o          1 SAN      -0.621300
     11 O2          -1.0750    -0.7880    -2.3420 o          1 SAN      -0.621300
     12 HN11         0.8530     0.1710     4.5660 hn         1 SAN       0.417300
     13 HN12        -0.8370     0.2140     4.5430 hn         1 SAN       0.417300
     14 H2          -2.1190     0.0310     2.5020 ha         1 SAN       0.135000
     15 H3          -2.0900     0.0240     0.0600 ha         1 SAN       0.151500
     16 H5           2.2070    -0.1100     0.1120 ha         1 SAN       0.151500
     17 H6           2.1770    -0.0930     2.5540 ha         1 SAN       0.135000
     18 HN21        -0.4970     1.6700    -3.1490 hn         1 SAN       0.411300
     19 HN22         0.5090     2.1590    -1.9200 hn         1 SAN       0.411300
@<TRIPOS>BOND
     1     1     2 1   
     2     1     3 ar  
     3     1     7 ar  
     4     2    12 1   
     5     2    13 1   
     6     3     4 ar  
     7     3    14 1   
     8     4     5 ar  
     9     4    15 1   
    10     5     6 ar  
    11     5     8 1   
    12     6     7 ar  
    13     6    16 1   
    14     7    17 1   
    15     8     9 1   
    16     8    10 2   
    17     8    11 2   
    18     9    18 1   
    19     9    19 1   
@<TRIPOS>SUBSTRUCTURE
     1 SAN         1 TEMP              0 ****  ****    0 ROOT
