@<TRIPOS>MOLECULE
SAQ
   32    35     1     0     0
SMALL
No Charge or Current Charge


@<TRIPOS>ATOM
      1 N1           6.0130    -0.2630     0.2650 ns         1 SAQ      -0.435400
      2 N3           4.7720     1.7940     0.1150 nc         1 SAQ      -0.615100
      3 C4           3.6240     0.9840     0.0320 ca         1 SAQ       0.163400
      4 C5           3.6540    -0.4370     0.0640 ca         1 SAQ      -0.202600
      5 C6           4.9670    -1.1140     0.1920 c          1 SAQ       0.578600
      6 C7           2.4590    -1.1920    -0.0240 ca         1 SAQ      -0.036000
      7 C8           1.2600    -0.4850    -0.1430 ca         1 SAQ      -0.108200
      8 C10          2.3770     1.6390    -0.0900 ca         1 SAQ      -0.069000
      9 N12         -0.0230    -0.9280    -0.2460 na         1 SAQ      -0.353600
     10 C13         -0.8100     0.2000    -0.3360 cc         1 SAQ       0.674700
     11 C2           5.9090     1.1000     0.2280 cd         1 SAQ       0.491800
     12 C9           1.2050     0.8780    -0.1760 ca         1 SAQ       0.147400
     13 N14         -0.1080     1.3320    -0.3000 nd         1 SAQ      -0.653100
     14 N15         -2.1510     0.1980    -0.4560 nu         1 SAQ      -0.894400
     15 O16          5.1150    -2.3260     0.2300 o          1 SAQ      -0.548000
     16 C25         -3.0420    -0.9450    -0.3210 c3         1 SAQ       0.302100
     17 C11         -4.4490    -0.4340    -0.2620 cc         1 SAQ      -0.256300
     18 S1          -5.4010    -0.5690     1.2150 ss         1 SAQ       0.241000
     19 C12         -6.7800     0.2000     0.4350 cc         1 SAQ      -0.236000
     20 C131        -6.4950     0.5190    -0.8690 cd         1 SAQ      -0.136000
     21 C14         -5.1790     0.1600    -1.2640 cd         1 SAQ      -0.111000
     22 HN1          6.9230    -0.6900     0.3530 hn         1 SAQ       0.328500
     23 H7           2.4680    -2.2800    -0.0010 ha         1 SAQ       0.138000
     24 H10          2.3240     2.7230    -0.1180 ha         1 SAQ       0.148000
     25 HN12        -0.3540    -1.8800    -0.2650 hn         1 SAQ       0.358000
     26 H2           6.8720     1.5910     0.3010 h5         1 SAQ       0.044800
     27 HN15        -2.5590     1.1270    -0.4360 hn         1 SAQ       0.515000
     28 H25         -2.9310    -1.6200    -1.1810 h1         1 SAQ       0.047700
     29 H25A        -2.8100    -1.5080     0.5930 h1         1 SAQ       0.047700
     30 H9          -7.6930     0.3560     0.9960 h4         1 SAQ       0.154000
     31 H101        -7.2070     0.9990    -1.5350 ha         1 SAQ       0.138000
     32 H11         -4.7870     0.3370    -2.2620 ha         1 SAQ       0.134000
@<TRIPOS>BOND
     1     1     5 1   
     2     1    11 1   
     3     1    22 1   
     4     2     3 1   
     5     2    11 2   
     6     3     4 ar  
     7     3     8 ar  
     8     4     5 1   
     9     4     6 ar  
    10     5    15 2   
    11     6     7 ar  
    12     6    23 1   
    13     7     9 1   
    14     7    12 ar  
    15     8    12 ar  
    16     8    24 1   
    17     9    10 1   
    18     9    25 1   
    19    10    13 2   
    20    10    14 1   
    21    11    26 1   
    22    12    13 1   
    23    14    16 1   
    24    14    27 1   
    25    16    17 1   
    26    16    28 1   
    27    16    29 1   
    28    17    18 1   
    29    17    21 2   
    30    18    19 1   
    31    19    20 2   
    32    19    30 1   
    33    20    21 1   
    34    20    31 1   
    35    21    32 1   
@<TRIPOS>SUBSTRUCTURE
     1 SAQ         1 TEMP              0 ****  ****    0 ROOT
