@<TRIPOS>MOLECULE
SAQ
   32    35     1     0     0
SMALL
bcc


@<TRIPOS>ATOM
      1 N1           5.9410    -0.4340     0.3710 ns         1 SAQ      -0.502400
      2 N3           4.8490     1.6270     0.2330 nc         1 SAQ      -0.615100
      3 C4           3.6490     0.9510     0.1200 ca         1 SAQ       0.163400
      4 C5           3.5890    -0.4630     0.1310 ca         1 SAQ      -0.202600
      5 C6           4.8190    -1.2260     0.2670 c          1 SAQ       0.721100
      6 C7           2.3680    -1.1400     0.0140 ca         1 SAQ      -0.054000
      7 C8           1.2420    -0.3710    -0.1110 ca         1 SAQ      -0.108200
      8 C10          2.4820     1.7080    -0.0080 ca         1 SAQ      -0.087000
      9 N12         -0.0900    -0.6880    -0.2500 na         1 SAQ      -0.303300
     10 C13         -0.7710     0.4880    -0.3380 cc         1 SAQ       0.674700
     11 C2           5.9110     0.9240     0.3500 cd         1 SAQ       0.491800
     12 C9           1.2720     1.0460    -0.1260 ca         1 SAQ       0.147400
     13 N14          0.0090     1.5460    -0.2690 nd         1 SAQ      -0.653100
     14 N15         -2.1090     0.5540    -0.4520 nu         1 SAQ      -0.839200
     15 O16          4.9010    -2.4440     0.2930 o          1 SAQ      -0.623500
     16 C25         -2.9450    -0.5790    -0.7870 c3         1 SAQ       0.302100
     17 C11         -4.3720    -0.2910    -0.4640 cc         1 SAQ      -0.111400
     18 S1          -4.8290     0.2890     1.0940 ss         1 SAQ      -0.048800
     19 C12         -6.4900     0.3000     0.6670 cc         1 SAQ      -0.109100
     20 C131        -6.6820    -0.1240    -0.6110 cd         1 SAQ      -0.154000
     21 C14         -5.4630    -0.4600    -1.2620 cd         1 SAQ      -0.129000
     22 HN1          6.8350    -0.8950     0.4720 hn         1 SAQ       0.328500
     23 H7           2.3300    -2.2210     0.0230 ha         1 SAQ       0.156000
     24 H10          2.5400     2.7890    -0.0160 ha         1 SAQ       0.166000
     25 HN12        -0.4690    -1.6190    -0.3050 hn         1 SAQ       0.307700
     26 H2           6.8760     1.4070     0.4430 h5         1 SAQ       0.044800
     27 HN15        -2.4580     1.4650    -0.7100 hn         1 SAQ       0.459800
     28 H25         -2.8720    -0.8490    -1.8450 h1         1 SAQ       0.047700
     29 H25A        -2.6140    -1.4470    -0.2100 h1         1 SAQ       0.047700
     30 H9          -7.2330     0.6270     1.3790 h4         1 SAQ       0.172000
     31 H101        -7.6540    -0.1900    -1.0780 ha         1 SAQ       0.156000
     32 H11         -5.3980    -0.8120    -2.2820 ha         1 SAQ       0.152000
@<TRIPOS>BOND
     1     1     5 1   
     2     1    11 1   
     3     1    22 1   
     4     2     3 1   
     5     2    11 2   
     6     3     4 ar  
     7     3     8 ar  
     8     4     5 1   
     9     4     6 ar  
    10     5    15 2   
    11     6     7 ar  
    12     6    23 1   
    13     7     9 1   
    14     7    12 ar  
    15     8    12 ar  
    16     8    24 1   
    17     9    10 1   
    18     9    25 1   
    19    10    13 2   
    20    10    14 1   
    21    11    26 1   
    22    12    13 1   
    23    14    16 1   
    24    14    27 1   
    25    16    17 1   
    26    16    28 1   
    27    16    29 1   
    28    17    18 1   
    29    17    21 2   
    30    18    19 1   
    31    19    20 2   
    32    19    30 1   
    33    20    21 1   
    34    20    31 1   
    35    21    32 1   
@<TRIPOS>SUBSTRUCTURE
     1 SAQ         1 TEMP              0 ****  ****    0 ROOT
