@<TRIPOS>MOLECULE
SAS
   41    43     1     0     0
SMALL
No Charge or Current Charge


@<TRIPOS>ATOM
      1 C1           1.0510     0.3430    -4.9950 ca         1 SAS       0.621900
      2 C2           1.4360     1.6910    -5.0490 ca         1 SAS      -0.206000
      3 C3           2.7510     2.0410    -4.7070 ca         1 SAS      -0.044000
      4 C4           3.6240     1.0080    -4.3370 ca         1 SAS      -0.202000
      5 C5           3.1540    -0.3150    -4.3280 ca         1 SAS       0.391900
      6 N1           1.8870    -0.6480    -4.6580 nb         1 SAS      -0.721000
      7 N2          -0.2130    -0.0240    -5.3420 nu         1 SAS      -0.895000
      8 S1          -1.2050    -1.0680    -4.5060 sy         1 SAS       1.196600
      9 O1          -0.6720    -2.4070    -4.7770 o          1 SAS      -0.542500
     10 O2          -2.5320    -0.6510    -4.9630 o          1 SAS      -0.542500
     11 C6          -1.0020    -0.6270    -2.7720 ca         1 SAS      -0.304500
     12 C7          -1.7390     0.4420    -2.2230 ca         1 SAS      -0.010500
     13 C8          -1.5670     0.7920    -0.8730 ca         1 SAS      -0.130500
     14 C9          -0.6630     0.0820    -0.0630 ca         1 SAS       0.186400
     15 C10          0.0750    -0.9790    -0.6140 ca         1 SAS      -0.130500
     16 C11         -0.0910    -1.3360    -1.9630 ca         1 SAS      -0.010500
     17 N3          -0.4880     0.4420     1.2870 ne         1 SAS      -0.296400
     18 N4          -1.2500    -0.1380     2.1150 nf         1 SAS      -0.142400
     19 C12         -1.0720     0.2260     3.4700 ca         1 SAS      -0.058600
     20 C13         -0.1450    -0.4670     4.2720 ca         1 SAS       0.048000
     21 C14          0.0390    -0.1210     5.6330 ca         1 SAS      -0.314600
     22 C15         -0.7300     0.9350     6.1650 ca         1 SAS       0.274100
     23 C16         -1.6540     1.6240     5.3690 ca         1 SAS      -0.239000
     24 C17         -1.8300     1.2730     4.0210 ca         1 SAS      -0.019000
     25 C18          1.0380    -0.8780     6.4690 c          1 SAS       0.728600
     26 O3          -0.5890     1.3030     7.4620 oh         1 SAS      -0.626100
     27 O4           1.1710    -0.5460     7.6400 o          1 SAS      -0.677000
     28 O5           1.6670    -1.7850     5.9490 o          1 SAS      -0.677000
     29 H2           0.7250     2.4570    -5.3450 ha         1 SAS       0.123000
     30 H3           3.0820     3.0780    -4.7310 ha         1 SAS       0.114000
     31 H4           4.6540     1.2210    -4.0630 ha         1 SAS       0.126000
     32 H5           3.8140    -1.1360    -4.0500 h4         1 SAS       0.027100
     33 HN2         -0.8180     0.7440    -5.5740 hn         1 SAS       0.513000
     34 H7          -2.4430     1.0050    -2.8350 ha         1 SAS       0.126000
     35 H8          -2.1360     1.6170    -0.4520 ha         1 SAS       0.134000
     36 H10          0.7800    -1.5260     0.0060 ha         1 SAS       0.134000
     37 H11          0.4940    -2.1570    -2.3750 ha         1 SAS       0.126000
     38 H13          0.4290    -1.2770     3.8250 ha         1 SAS       0.135000
     39 H16         -2.2390     2.4340     5.7960 ha         1 SAS       0.111000
     40 H17         -2.5500     1.8100     3.4070 ha         1 SAS       0.111000
     41 HO3          0.1110     0.6800     7.8110 ho         1 SAS       0.561000
@<TRIPOS>BOND
     1     1     2 ar  
     2     1     6 ar  
     3     1     7 1   
     4     2     3 ar  
     5     2    29 1   
     6     3     4 ar  
     7     3    30 1   
     8     4     5 ar  
     9     4    31 1   
    10     5     6 ar  
    11     5    32 1   
    12     7     8 1   
    13     7    33 1   
    14     8     9 2   
    15     8    10 2   
    16     8    11 1   
    17    11    12 ar  
    18    11    16 ar  
    19    12    13 ar  
    20    12    34 1   
    21    13    14 ar  
    22    13    35 1   
    23    14    15 ar  
    24    14    17 1   
    25    15    16 ar  
    26    15    36 1   
    27    16    37 1   
    28    17    18 2   
    29    18    19 1   
    30    19    20 ar  
    31    19    24 ar  
    32    20    21 ar  
    33    20    38 1   
    34    21    22 ar  
    35    21    25 1   
    36    22    23 ar  
    37    22    26 1   
    38    23    24 ar  
    39    23    39 1   
    40    24    40 1   
    41    25    27 1   
    42    25    28 1   
    43    26    41 1   
@<TRIPOS>SUBSTRUCTURE
     1 SAS         1 TEMP              0 ****  ****    0 ROOT
