@<TRIPOS>MOLECULE
SAS
   41    43     1     0     0
SMALL
abcg2


@<TRIPOS>ATOM
      1 C1           1.0370     0.5200    -4.9290 ca         1 SAS       0.621900
      2 C2           1.5360     1.6630    -5.5590 ca         1 SAS      -0.206000
      3 C3           2.8320     2.0380    -5.2680 ca         1 SAS      -0.044000
      4 C4           3.5800     1.2820    -4.3700 ca         1 SAS      -0.202000
      5 C5           2.9790     0.1740    -3.8040 ca         1 SAS       0.391900
      6 N1           1.7340    -0.2050    -4.0770 nb         1 SAS      -0.721000
      7 N2          -0.2620     0.1090    -5.1990 nu         1 SAS      -0.895000
      8 S1          -1.0450    -1.1290    -4.4220 sy         1 SAS       1.196600
      9 O1          -0.3070    -2.3640    -4.5890 o          1 SAS      -0.542500
     10 O2          -2.4080    -1.0420    -4.9220 o          1 SAS      -0.542500
     11 C6          -1.0400    -0.6790    -2.7150 ca         1 SAS      -0.304500
     12 C7          -1.8410     0.3800    -2.3090 ca         1 SAS      -0.010500
     13 C8          -1.8400     0.7460    -0.9760 ca         1 SAS      -0.130500
     14 C9          -1.0660     0.0490    -0.0500 ca         1 SAS       0.186400
     15 C10         -0.2700    -1.0170    -0.4750 ca         1 SAS      -0.130500
     16 C11         -0.2510    -1.3770    -1.8090 ca         1 SAS      -0.010500
     17 N3          -1.1430     0.5110     1.2740 ne         1 SAS      -0.296400
     18 N4          -0.5750    -0.2130     2.1110 nf         1 SAS      -0.142400
     19 C12         -0.6120     0.2210     3.4290 ca         1 SAS      -0.058600
     20 C13         -0.0110    -0.6190     4.3630 ca         1 SAS       0.048000
     21 C14          0.0190    -0.3020     5.7090 ca         1 SAS      -0.314600
     22 C15         -0.5710     0.9070     6.1420 ca         1 SAS       0.274100
     23 C16         -1.1790     1.7580     5.1980 ca         1 SAS      -0.239000
     24 C17         -1.1990     1.4210     3.8680 ca         1 SAS      -0.019000
     25 C18          0.6640    -1.2140     6.7170 c          1 SAS       0.728600
     26 O3          -0.5550     1.2390     7.4130 oh         1 SAS      -0.626100
     27 O4           0.6250    -0.7960     7.9220 o          1 SAS      -0.677000
     28 O5           1.1740    -2.2700     6.3460 o          1 SAS      -0.677000
     29 H2           0.9260     2.2280    -6.2510 ha         1 SAS       0.123000
     30 H3           3.2560     2.9160    -5.7360 ha         1 SAS       0.114000
     31 H4           4.5960     1.5470    -4.1170 ha         1 SAS       0.126000
     32 H5           3.5200    -0.4450    -3.0970 h4         1 SAS       0.027100
     33 HN2         -0.8640     0.7210    -5.7350 hn         1 SAS       0.513000
     34 H7          -2.4570     0.9230    -3.0130 ha         1 SAS       0.126000
     35 H8          -2.4460     1.5760    -0.6370 ha         1 SAS       0.134000
     36 H10          0.3420    -1.5560     0.2340 ha         1 SAS       0.134000
     37 H11          0.3770    -2.1920    -2.1380 ha         1 SAS       0.126000
     38 H13          0.4400    -1.5430     4.0210 ha         1 SAS       0.135000
     39 H16         -1.6270     2.6840     5.5360 ha         1 SAS       0.111000
     40 H17         -1.6690     2.0830     3.1530 ha         1 SAS       0.111000
     41 HO3         -0.0490     0.4280     7.8620 ho         1 SAS       0.561000
@<TRIPOS>BOND
     1     1     2 ar  
     2     1     6 ar  
     3     1     7 1   
     4     2     3 ar  
     5     2    29 1   
     6     3     4 ar  
     7     3    30 1   
     8     4     5 ar  
     9     4    31 1   
    10     5     6 ar  
    11     5    32 1   
    12     7     8 1   
    13     7    33 1   
    14     8     9 2   
    15     8    10 2   
    16     8    11 1   
    17    11    12 ar  
    18    11    16 ar  
    19    12    13 ar  
    20    12    34 1   
    21    13    14 ar  
    22    13    35 1   
    23    14    15 ar  
    24    14    17 1   
    25    15    16 ar  
    26    15    36 1   
    27    16    37 1   
    28    17    18 2   
    29    18    19 1   
    30    19    20 ar  
    31    19    24 ar  
    32    20    21 ar  
    33    20    38 1   
    34    21    22 ar  
    35    21    25 1   
    36    22    23 ar  
    37    22    26 1   
    38    23    24 ar  
    39    23    39 1   
    40    24    40 1   
    41    25    27 1   
    42    25    28 1   
    43    26    41 1   
@<TRIPOS>SUBSTRUCTURE
     1 SAS         1 TEMP              0 ****  ****    0 ROOT
