@<TRIPOS>MOLECULE
SAT
   10     9     1     0     0
SMALL
No Charge or Current Charge


@<TRIPOS>ATOM
      1 O5          -0.7680     0.1190    -1.7580 o          1 SAT      -0.736867
      2 S1          -1.0190    -0.1290    -0.3310 s6         1 SAT       1.349600
      3 O3          -1.1890     1.0840     0.4810 o          1 SAT      -0.736867
      4 O4          -2.0240    -1.1710    -0.0710 o          1 SAT      -0.736867
      5 C2           0.4770    -0.8630     0.2680 c3         1 SAT      -0.466400
      6 C1           1.6040     0.0950     0.0670 c          1 SAT       0.757000
      7 O1           1.9410     0.7780     1.0220 o          1 SAT      -0.758500
      8 O2           2.3070    -0.0560    -0.9190 o          1 SAT      -0.758500
      9 H21          0.3440    -1.0850     1.3310 h1         1 SAT       0.042700
     10 H22          0.6510    -1.7860    -0.2950 h1         1 SAT       0.042700
@<TRIPOS>BOND
     1     1     2 1   
     2     2     3 1   
     3     2     4 1   
     4     2     5 1   
     5     5     6 1   
     6     5     9 1   
     7     5    10 1   
     8     6     7 1   
     9     6     8 1   
@<TRIPOS>SUBSTRUCTURE
     1 SAT         1 TEMP              0 ****  ****    0 ROOT
