@<TRIPOS>MOLECULE
SAT
   10     9     1     0     0
SMALL
abcg2


@<TRIPOS>ATOM
      1 O5          -1.0960     0.7260    -1.3150 o          1 SAT      -0.736867
      2 S1          -1.0810    -0.0420    -0.0530 s6         1 SAT       1.349600
      3 O3          -1.1910     0.8020     1.1540 o          1 SAT      -0.736867
      4 O4          -2.0790    -1.1380    -0.0550 o          1 SAT      -0.736867
      5 C2           0.5040    -0.8820     0.0220 c3         1 SAT      -0.466400
      6 C1           1.7680     0.0000    -0.0240 c          1 SAT       0.757000
      7 O1           1.6370     1.2300     0.0740 o          1 SAT      -0.758500
      8 O2           2.8320    -0.6380    -0.1450 o          1 SAT      -0.758500
      9 H21          0.5080    -1.4750     0.9420 h1         1 SAT       0.042700
     10 H22          0.5220    -1.5960    -0.8050 h1         1 SAT       0.042700
@<TRIPOS>BOND
     1     1     2 1   
     2     2     3 1   
     3     2     4 1   
     4     2     5 1   
     5     5     6 1   
     6     5     9 1   
     7     5    10 1   
     8     6     7 1   
     9     6     8 1   
@<TRIPOS>SUBSTRUCTURE
     1 SAT         1 TEMP              0 ****  ****    0 ROOT
