@<TRIPOS>MOLECULE
SAU
   39    44     1     0     0
SMALL
abcg2


@<TRIPOS>ATOM
      1 N            0.3150     1.2960     0.5460 na         1 SAU       0.059300
      2 C1          -6.1410     0.9980    -0.3900 c5         1 SAU       0.372600
      3 O1          -4.9070     1.6980    -0.4900 os         1 SAU      -0.330100
      4 C2          -4.4880    -0.4500    -0.0320 ca         1 SAU       0.097100
      5 O2          -5.8210    -0.3720    -0.1780 os         1 SAU      -0.320100
      6 C3          -3.9280     0.8220    -0.2060 ca         1 SAU       0.103100
      7 O3           5.9330    -0.1160    -0.3610 os         1 SAU      -0.314100
      8 C4          -3.7080    -1.5400     0.1770 ca         1 SAU      -0.093000
      9 O4           4.5380     1.6730    -0.0510 os         1 SAU      -0.333100
     10 C5          -2.3060    -1.3400     0.2510 ca         1 SAU      -0.016000
     11 C6          -1.7360    -0.0410     0.1690 ca         1 SAU      -0.029000
     12 C7          -2.5930     1.0570    -0.1250 ca         1 SAU      -0.137000
     13 C8          -1.4600    -2.4720     0.3300 ca         1 SAU      -0.042000
     14 C9          -0.1130    -2.3480     0.2530 ca         1 SAU      -0.107000
     15 C10         -0.3120     0.0660     0.3080 ca         1 SAU      -0.059000
     16 C12          1.6120     1.4400     0.4240 ca         1 SAU       0.088700
     17 C13          2.4610     0.3740     0.1230 ca         1 SAU      -0.114000
     18 C14          1.9300    -0.9440     0.0940 ca         1 SAU       0.031000
     19 C15          0.5030    -1.0730     0.2210 ca         1 SAU      -0.008000
     20 C18          2.8020    -2.0220    -0.0870 ca         1 SAU      -0.107000
     21 C19          4.1680    -1.8340    -0.2500 ca         1 SAU      -0.011000
     22 C20          4.6610    -0.5420    -0.2220 ca         1 SAU       0.060100
     23 C21          3.8350     0.5360    -0.0390 ca         1 SAU       0.112100
     24 C23          5.9160     1.2910    -0.1490 c5         1 SAU       0.375600
     25 C25         -0.3930     2.4490     1.1370 c3         1 SAU       0.016900
     26 H1          -6.7160     1.3790     0.4570 h2         1 SAU       0.089200
     27 H1A         -6.7030     1.1070    -1.3180 h2         1 SAU       0.089200
     28 H4          -4.1200    -2.5370     0.2560 ha         1 SAU       0.158000
     29 H7          -2.2230     2.0450    -0.3420 ha         1 SAU       0.136000
     30 H8          -1.9080    -3.4550     0.3980 ha         1 SAU       0.144000
     31 H9           0.4970    -3.2380     0.2420 ha         1 SAU       0.140000
     32 H12          2.0090     2.4250     0.6270 h4         1 SAU       0.179000
     33 H18          2.4300    -3.0340    -0.1200 ha         1 SAU       0.148000
     34 H19          4.8250    -2.6800    -0.3990 ha         1 SAU       0.164000
     35 H23          6.4280     1.5370     0.7840 h2         1 SAU       0.093200
     36 H23A         6.3740     1.8030    -0.9940 h2         1 SAU       0.093200
     37 H25          0.2990     2.9630     1.7960 h1         1 SAU       0.091033
     38 H25A        -0.7250     3.1380     0.3670 h1         1 SAU       0.091033
     39 H25B        -1.2320     2.1020     1.7280 h1         1 SAU       0.091033
@<TRIPOS>BOND
     1     1    15 1   
     2     1    16 2   
     3     1    25 1   
     4     2     3 1   
     5     2     5 1   
     6     2    26 1   
     7     2    27 1   
     8     3     6 1   
     9     4     5 1   
    10     4     6 ar  
    11     4     8 ar  
    12     6    12 ar  
    13     7    22 1   
    14     7    24 1   
    15     8    10 ar  
    16     8    28 1   
    17     9    23 1   
    18     9    24 1   
    19    10    11 ar  
    20    10    13 ar  
    21    11    12 ar  
    22    11    15 ar  
    23    12    29 1   
    24    13    14 ar  
    25    13    30 1   
    26    14    19 ar  
    27    14    31 1   
    28    15    19 ar  
    29    16    17 ar  
    30    16    32 1   
    31    17    18 ar  
    32    17    23 ar  
    33    18    19 ar  
    34    18    20 ar  
    35    20    21 ar  
    36    20    33 1   
    37    21    22 ar  
    38    21    34 1   
    39    22    23 ar  
    40    24    35 1   
    41    24    36 1   
    42    25    37 1   
    43    25    38 1   
    44    25    39 1   
@<TRIPOS>SUBSTRUCTURE
     1 SAU         1 TEMP              0 ****  ****    0 ROOT
