@<TRIPOS>MOLECULE
SAU
   39    44     1     0     0
SMALL
No Charge or Current Charge


@<TRIPOS>ATOM
      1 N            0.2520     1.3450     0.4490 na         1 SAU       0.059300
      2 C1          -6.1820     1.0590    -0.3980 c5         1 SAU       0.372600
      3 O1          -4.9250     1.8260    -0.3900 os         1 SAU      -0.330100
      4 C2          -4.5270    -0.3920    -0.2120 ca         1 SAU       0.097100
      5 O2          -5.8740    -0.3800    -0.3760 os         1 SAU      -0.320100
      6 C3          -3.9880     0.8600    -0.2180 ca         1 SAU       0.103100
      7 O3           5.9760    -0.1070    -0.2060 os         1 SAU      -0.314100
      8 C4          -3.7270    -1.5300    -0.0860 ca         1 SAU      -0.093000
      9 O4           4.4650     1.7570    -0.2430 os         1 SAU      -0.333100
     10 C5          -2.3310    -1.3540     0.0510 ca         1 SAU      -0.016000
     11 C6          -1.7550    -0.0520     0.0790 ca         1 SAU      -0.029000
     12 C7          -2.6120     1.0730    -0.0840 ca         1 SAU      -0.137000
     13 C8          -1.5100    -2.4840     0.1490 ca         1 SAU      -0.042000
     14 C9          -0.1190    -2.3490     0.2240 ca         1 SAU      -0.107000
     15 C10         -0.3440     0.0860     0.2440 ca         1 SAU      -0.059000
     16 C12          1.5770     1.5070     0.0700 ca         1 SAU       0.088700
     17 C13          2.4350     0.4000     0.0570 ca         1 SAU      -0.114000
     18 C14          1.9120    -0.9120     0.2070 ca         1 SAU       0.031000
     19 C15          0.4910    -1.0720     0.2470 ca         1 SAU      -0.008000
     20 C18          2.8300    -2.0060     0.2330 ca         1 SAU      -0.107000
     21 C19          4.2200    -1.7940     0.1010 ca         1 SAU      -0.011000
     22 C20          4.6780    -0.4860    -0.0740 ca         1 SAU       0.060100
     23 C21          3.8180     0.5710    -0.0980 ca         1 SAU       0.112100
     24 C23          5.8660     1.3440    -0.4270 c5         1 SAU       0.375600
     25 C25         -0.2240     2.2080     1.5510 c3         1 SAU       0.016900
     26 H1          -6.7640     1.3150     0.4950 h2         1 SAU       0.089200
     27 H1A         -6.7570     1.3010    -1.3000 h2         1 SAU       0.089200
     28 H4          -4.1770    -2.5190    -0.1060 ha         1 SAU       0.158000
     29 H7          -2.2390     2.0900    -0.1340 ha         1 SAU       0.136000
     30 H8          -1.9480    -3.4800     0.1270 ha         1 SAU       0.144000
     31 H9           0.4600    -3.2650     0.2390 ha         1 SAU       0.140000
     32 H12          1.9470     2.5260    -0.0490 h4         1 SAU       0.179000
     33 H18          2.5000    -3.0300     0.3560 ha         1 SAU       0.148000
     34 H19          4.9190    -2.6270     0.1260 ha         1 SAU       0.164000
     35 H23          6.5070     1.8770     0.2840 h2         1 SAU       0.093200
     36 H23A         6.1750     1.5740    -1.4530 h2         1 SAU       0.093200
     37 H25          0.5920     2.3880     2.2620 h1         1 SAU       0.091033
     38 H25A        -0.5640     3.1690     1.1480 h1         1 SAU       0.091033
     39 H25B        -1.0490     1.7250     2.0890 h1         1 SAU       0.091033
@<TRIPOS>BOND
     1     1    15 1   
     2     1    16 2   
     3     1    25 1   
     4     2     3 1   
     5     2     5 1   
     6     2    26 1   
     7     2    27 1   
     8     3     6 1   
     9     4     5 1   
    10     4     6 ar  
    11     4     8 ar  
    12     6    12 ar  
    13     7    22 1   
    14     7    24 1   
    15     8    10 ar  
    16     8    28 1   
    17     9    23 1   
    18     9    24 1   
    19    10    11 ar  
    20    10    13 ar  
    21    11    12 ar  
    22    11    15 ar  
    23    12    29 1   
    24    13    14 ar  
    25    13    30 1   
    26    14    19 ar  
    27    14    31 1   
    28    15    19 ar  
    29    16    17 ar  
    30    16    32 1   
    31    17    18 ar  
    32    17    23 ar  
    33    18    19 ar  
    34    18    20 ar  
    35    20    21 ar  
    36    20    33 1   
    37    21    22 ar  
    38    21    34 1   
    39    22    23 ar  
    40    24    35 1   
    41    24    36 1   
    42    25    37 1   
    43    25    38 1   
    44    25    39 1   
@<TRIPOS>SUBSTRUCTURE
     1 SAU         1 TEMP              0 ****  ****    0 ROOT
