@<TRIPOS>MOLECULE
SAV
   52    55     1     0     0
SMALL
No Charge or Current Charge


@<TRIPOS>ATOM
      1 N1          -1.0070     0.1390     0.3290 nu         1 SAV      -0.928900
      2 N3           3.2070     2.0680     0.5090 nu         1 SAV      -0.932900
      3 C4          -2.3660    -0.1380     0.2350 ca         1 SAV       0.388000
      4 C5          -0.2590     1.2890     0.5250 ca         1 SAV       0.423900
      5 C6          -0.1190     3.5160     1.0270 ca         1 SAV       0.171900
      6 C7           1.2770     3.4380     0.9210 ca         1 SAV      -0.331000
      7 C8           1.8290     2.1980     0.5940 ca         1 SAV       0.425900
      8 C10          5.3940     1.0570     0.5750 ca         1 SAV      -0.203000
      9 C13          6.5550    -1.9820    -1.3990 cc         1 SAV       0.370900
     10 C15          4.6270    -0.8640    -1.2640 ca         1 SAV      -0.006200
     11 C17         -2.8060    -1.3990     0.6300 ca         1 SAV      -0.275500
     12 C20         -5.1100    -0.8030     0.0440 ca         1 SAV      -0.005900
     13 C21         -7.5480    -0.4320    -0.4620 c3         1 SAV       0.146900
     14 C1          -5.1360     2.7320    -1.3150 c3         1 SAV       0.145900
     15 C2          -4.6490     0.4810    -0.3800 ca         1 SAV       0.185100
     16 C3          -3.2750     0.7890    -0.2810 ca         1 SAV      -0.275500
     17 N2          -0.8950     2.4360     0.8290 nb         1 SAV      -0.260000
     18 C9           4.0710     1.0620     0.0700 ca         1 SAV       0.342000
     19 C11          6.3260     0.0800     0.1640 ca         1 SAV      -0.002000
     20 C12          5.8880    -0.8720    -0.7650 ca         1 SAV      -0.259900
     21 N4           5.7420    -2.6260    -2.2520 nd         1 SAV      -0.523100
     22 N5           4.5380    -1.9120    -2.1550 na         1 SAV      -0.065400
     23 C16          3.6800     0.0900    -0.8790 ca         1 SAV      -0.165000
     24 N6           1.0640     1.1130     0.4070 nb         1 SAV      -0.317000
     25 C18         -4.1710    -1.7360     0.5440 ca         1 SAV       0.185100
     26 O2          -4.6320    -2.9800     0.9430 os         1 SAV      -0.323600
     27 C19         -3.7640    -4.0010     1.4660 c3         1 SAV       0.145900
     28 O3          -6.4410    -1.2270    -0.0020 os         1 SAV      -0.323100
     29 HN1         -0.4260    -0.6950     0.3500 hn         1 SAV       0.506000
     30 HN3          3.6950     2.8610     0.9210 hn         1 SAV       0.501000
     31 H6          -0.6210     4.4500     1.2750 h4         1 SAV       0.022100
     32 H7           1.8980     4.3130     1.0840 ha         1 SAV       0.134000
     33 H10          5.7010     1.8100     1.2950 ha         1 SAV       0.110000
     34 H17         -2.0790    -2.1050     1.0150 ha         1 SAV       0.138500
     35 H21         -7.6580     0.4760     0.1450 h1         1 SAV       0.031367
     36 H21A        -7.4190    -0.1510    -1.5150 h1         1 SAV       0.031367
     37 H21B        -8.4800    -1.0040    -0.3810 h1         1 SAV       0.031367
     38 H1          -4.6840     3.2910    -0.4850 h1         1 SAV       0.041867
     39 H1A         -4.4140     2.6740    -2.1390 h1         1 SAV       0.041867
     40 H1B         -6.0080     3.2960    -1.6680 h1         1 SAV       0.041867
     41 H3          -2.8980     1.7430    -0.6230 ha         1 SAV       0.138500
     42 H11          7.3420     0.0700     0.5530 ha         1 SAV       0.120000
     43 H14          8.1390    -2.6280    -0.1020 hc         1 SAV       0.049700
     44 H14A         8.2460    -3.2740    -1.7500 hc         1 SAV       0.049700
     45 H14B         8.6640    -1.5790    -1.4340 hc         1 SAV       0.049700
     46 HN5          3.7160    -2.1710    -2.6990 hn         1 SAV       0.375000
     47 H16          2.6870     0.0870    -1.3140 ha         1 SAV       0.153000
     48 H19         -3.0020    -4.2820     0.7280 h1         1 SAV       0.041867
     49 H19A        -3.2620    -3.6560     2.3790 h1         1 SAV       0.041867
     50 H19B        -4.3420    -4.8990     1.7160 h1         1 SAV       0.041867
     51 O1          -5.5350     1.4160    -0.8890 os         1 SAV      -0.323600
     52 C14          7.9800    -2.3900    -1.1600 c3         1 SAV      -0.103400
@<TRIPOS>BOND
     1     1     3 1   
     2     1     4 1   
     3     1    29 1   
     4     2     7 1   
     5     2    18 1   
     6     2    30 1   
     7     3    11 ar  
     8     3    16 ar  
     9     4    17 ar  
    10     4    24 ar  
    11     5     6 ar  
    12     5    17 ar  
    13     5    31 1   
    14     6     7 ar  
    15     6    32 1   
    16     7    24 ar  
    17     8    18 ar  
    18     8    19 ar  
    19     8    33 1   
    20     9    20 1   
    21     9    21 2   
    22     9    52 1   
    23    10    20 ar  
    24    10    22 1   
    25    10    23 ar  
    26    11    25 ar  
    27    11    34 1   
    28    12    15 ar  
    29    12    25 ar  
    30    12    28 1   
    31    13    28 1   
    32    13    35 1   
    33    13    36 1   
    34    13    37 1   
    35    14    38 1   
    36    14    39 1   
    37    14    40 1   
    38    14    51 1   
    39    15    16 ar  
    40    15    51 1   
    41    16    41 1   
    42    18    23 ar  
    43    19    20 ar  
    44    19    42 1   
    45    21    22 1   
    46    22    46 1   
    47    23    47 1   
    48    25    26 1   
    49    26    27 1   
    50    27    48 1   
    51    27    49 1   
    52    27    50 1   
    53    43    52 1   
    54    44    52 1   
    55    45    52 1   
@<TRIPOS>SUBSTRUCTURE
     1 SAV         1 TEMP              0 ****  ****    0 ROOT
