@<TRIPOS>MOLECULE
SAV
   52    55     1     0     0
SMALL
bcc


@<TRIPOS>ATOM
      1 N1          -1.0080     0.3340     0.0840 nu         1 SAV      -0.735300
      2 N3           3.1740     2.1980     0.0370 nu         1 SAV      -0.739300
      3 C4          -2.3750     0.0930     0.1650 ca         1 SAV       0.249600
      4 C5          -0.2800     1.4840     0.1610 ca         1 SAV       0.949900
      5 C6          -0.0700     3.7090     0.4060 ca         1 SAV       0.500200
      6 C7           1.2930     3.6310     0.3180 ca         1 SAV      -0.479600
      7 C8           1.8270     2.3380     0.1310 ca         1 SAV       0.754200
      8 C10          5.3740     1.3240    -0.0920 ca         1 SAV      -0.221000
      9 C13          6.4340    -2.2480    -0.7420 cc         1 SAV       0.370900
     10 C15          4.4560    -1.2060    -0.5690 ca         1 SAV      -0.006200
     11 C17         -2.7540    -1.2530     0.1710 ca         1 SAV      -0.293500
     12 C20         -5.0790    -0.6020     0.3060 ca         1 SAV      -0.005900
     13 C21         -7.0480    -1.0870    -0.8510 c3         1 SAV       0.123700
     14 C1          -5.3670     3.0080     0.3320 c3         1 SAV       0.122700
     15 C2          -4.6870     0.7360     0.2890 ca         1 SAV       0.185100
     16 C3          -3.3410     1.0940     0.2260 ca         1 SAV      -0.293500
     17 N2          -0.8820     2.6500     0.3300 nb         1 SAV      -0.786000
     18 C9           3.9740     1.0740    -0.1520 ca         1 SAV       0.203600
     19 C11          6.2960     0.3260    -0.2670 ca         1 SAV      -0.020000
     20 C12          5.8380    -0.9750    -0.5120 ca         1 SAV      -0.259900
     21 N4           5.5020    -3.1520    -0.9210 nd         1 SAV      -0.523100
     22 N5           4.3190    -2.5270    -0.8160 na         1 SAV      -0.015100
     23 C16          3.4970    -0.2030    -0.3940 ca         1 SAV      -0.183000
     24 N6           1.0390     1.2810     0.0520 nb         1 SAV      -0.843000
     25 C18         -4.0980    -1.5960     0.2370 ca         1 SAV       0.185100
     26 O2          -4.5530    -2.8600     0.2500 os         1 SAV      -0.300400
     27 C19         -3.6160    -3.9180     0.2150 c3         1 SAV       0.122700
     28 O3          -6.3950    -0.9360     0.4010 os         1 SAV      -0.299900
     29 HN1         -0.4330    -0.4870    -0.0210 hn         1 SAV       0.450800
     30 HN3          3.6880     3.0580     0.1450 hn         1 SAV       0.445800
     31 H6          -0.5520     4.6700     0.5480 h4         1 SAV       0.022100
     32 H7           1.9200     4.5090     0.3850 ha         1 SAV       0.152000
     33 H10          5.7140     2.3350     0.1030 ha         1 SAV       0.128000
     34 H17         -1.9880    -2.0150     0.1270 ha         1 SAV       0.156500
     35 H21         -7.0140    -0.1670    -1.4410 h1         1 SAV       0.031367
     36 H21A        -6.6120    -1.8970    -1.4420 h1         1 SAV       0.031367
     37 H21B        -8.0900    -1.3290    -0.6460 h1         1 SAV       0.031367
     38 H1          -4.7630     3.2950     1.1970 h1         1 SAV       0.041867
     39 H1A         -4.8380     3.2980    -0.5790 h1         1 SAV       0.041867
     40 H1B         -6.3120     3.5440     0.3730 h1         1 SAV       0.041867
     41 H3          -3.0320     2.1260     0.2240 ha         1 SAV       0.156500
     42 H11          7.3540     0.5480    -0.2130 ha         1 SAV       0.138000
     43 H14          8.3700    -2.3410     0.1600 hc         1 SAV       0.049700
     44 H14A         8.0370    -3.6360    -0.9930 hc         1 SAV       0.049700
     45 H14B         8.3930    -2.0030    -1.5620 hc         1 SAV       0.049700
     46 HN5          3.4680    -3.0510    -0.9330 hn         1 SAV       0.324700
     47 H16          2.4420    -0.4150    -0.4460 ha         1 SAV       0.171000
     48 H19         -3.0170    -3.9060    -0.6990 h1         1 SAV       0.041867
     49 H19A        -2.9460    -3.9000     1.0780 h1         1 SAV       0.041867
     50 H19B        -4.1920    -4.8400     0.2400 h1         1 SAV       0.041867
     51 O1          -5.6880     1.6320     0.3430 os         1 SAV      -0.300400
     52 C14          7.8830    -2.5780    -0.7870 c3         1 SAV      -0.103400
@<TRIPOS>BOND
     1     1     3 1   
     2     1     4 1   
     3     1    29 1   
     4     2     7 1   
     5     2    18 1   
     6     2    30 1   
     7     3    11 ar  
     8     3    16 ar  
     9     4    17 ar  
    10     4    24 ar  
    11     5     6 ar  
    12     5    17 ar  
    13     5    31 1   
    14     6     7 ar  
    15     6    32 1   
    16     7    24 ar  
    17     8    18 ar  
    18     8    19 ar  
    19     8    33 1   
    20     9    20 1   
    21     9    21 2   
    22     9    52 1   
    23    10    20 ar  
    24    10    22 1   
    25    10    23 ar  
    26    11    25 ar  
    27    11    34 1   
    28    12    15 ar  
    29    12    25 ar  
    30    12    28 1   
    31    13    28 1   
    32    13    35 1   
    33    13    36 1   
    34    13    37 1   
    35    14    38 1   
    36    14    39 1   
    37    14    40 1   
    38    14    51 1   
    39    15    16 ar  
    40    15    51 1   
    41    16    41 1   
    42    18    23 ar  
    43    19    20 ar  
    44    19    42 1   
    45    21    22 1   
    46    22    46 1   
    47    23    47 1   
    48    25    26 1   
    49    26    27 1   
    50    27    48 1   
    51    27    49 1   
    52    27    50 1   
    53    43    52 1   
    54    44    52 1   
    55    45    52 1   
@<TRIPOS>SUBSTRUCTURE
     1 SAV         1 TEMP              0 ****  ****    0 ROOT
