@<TRIPOS>MOLECULE
SAW
   84    88     1     0     0
SMALL
bcc


@<TRIPOS>ATOM
      1 C1          11.0210    -0.2200    -1.2960 c6         1 SAW      -0.100400
      2 C2           9.7040    -0.4030    -2.0510 c6         1 SAW      -0.055700
      3 C3           9.3030    -1.8780    -2.0340 c6         1 SAW      -0.072400
      4 C4           8.6120     0.4320    -1.3800 c6         1 SAW      -0.064400
      5 C5          10.8550    -0.6800     0.1540 c6         1 SAW       0.155800
      6 C6          10.4510    -2.1550     0.1700 c6         1 SAW      -0.100400
      7 C7           9.7590     0.1470     0.8220 c6         1 SAW      -0.046400
      8 C8           9.1350    -2.3410    -0.5860 c6         1 SAW      -0.055700
      9 C9           8.4260    -0.0220     0.0810 c6         1 SAW      -0.123000
     10 C10          8.0430    -1.5150     0.0940 c6         1 SAW      -0.064400
     11 C11         -8.0000    -2.4060     1.8200 ca         1 SAW      -0.191000
     12 C12         -7.6090    -1.1900     2.4010 ca         1 SAW      -0.074000
     13 C13         -7.2930    -0.1000     1.6390 ca         1 SAW      -0.173000
     14 C14         -8.0630    -2.5410     0.4540 ca         1 SAW       0.154600
     15 C15         -7.6520    -1.4410    -0.3690 ca         1 SAW      -0.067000
     16 C16         -7.2950    -0.1980     0.2270 ca         1 SAW       0.060000
     17 C17         -6.9200     0.8630    -0.6510 ca         1 SAW      -0.304500
     18 C18         -6.8700     0.6920    -2.0100 ca         1 SAW      -0.004000
     19 C19         -7.1750    -0.5560    -2.5750 ca         1 SAW      -0.172000
     20 C20         -7.5500    -1.5950    -1.7710 ca         1 SAW      -0.044000
     21 C22         -8.3390    -4.9450     0.5870 c3         1 SAW       0.171100
     22 C23         -9.7820    -3.6460    -0.8240 c3         1 SAW       0.171100
     23 C24          7.3480     0.8140     0.7700 c          1 SAW       0.672100
     24 N25          6.1130     0.7210     0.2500 ns         1 SAW      -0.578900
     25 C26          4.9690     1.4200     0.7990 c3         1 SAW       0.104000
     26 C27          3.6750     0.9030     0.1930 c3         1 SAW      -0.094400
     27 C28          2.4570     1.6010     0.7830 c3         1 SAW      -0.073400
     28 C29          1.1420     1.1060     0.1950 c3         1 SAW      -0.074400
     29 C30         -0.0740     1.7960     0.7990 c3         1 SAW      -0.074400
     30 C31         -1.3910     1.3260     0.1950 c3         1 SAW      -0.075400
     31 C32         -2.6000     2.0180     0.8110 c3         1 SAW      -0.079400
     32 C33         -3.8970     1.6090     0.1330 c3         1 SAW       0.207800
     33 N34         -5.0320     2.2500     0.7930 n7         1 SAW      -0.823100
     34 S36         -6.4360     2.4600    -0.0300 sy         1 SAW       1.294200
     35 O37         -7.4160     2.9300     0.9380 o          1 SAW      -0.605800
     36 O38          7.5790     1.5220     1.7410 o          1 SAW      -0.601100
     37 O39         12.0380    -0.4610     0.9020 oh         1 SAW      -0.587800
     38 H1          11.8160    -0.7980    -1.7810 hc         1 SAW       0.047450
     39 H1A         11.3290     0.8300    -1.3170 hc         1 SAW       0.047450
     40 H2           9.8270    -0.0650    -3.0830 hc         1 SAW       0.053700
     41 H3           8.3710    -2.0220    -2.5890 hc         1 SAW       0.041700
     42 H3A         10.0650    -2.4820    -2.5360 hc         1 SAW       0.041700
     43 H4           8.8770     1.4940    -1.4070 hc         1 SAW       0.044700
     44 H4A          7.6820     0.3290    -1.9480 hc         1 SAW       0.044700
     45 H6          11.2390    -2.7660    -0.2870 hc         1 SAW       0.047450
     46 H6A         10.3430    -2.4940     1.2060 hc         1 SAW       0.047450
     47 H7           9.6510    -0.1700     1.8630 hc         1 SAW       0.069700
     48 H7A         10.0550     1.2010     0.8320 hc         1 SAW       0.069700
     49 H8           8.8480    -3.3950    -0.5650 hc         1 SAW       0.053700
     50 H10          7.0900    -1.6830    -0.4170 hc         1 SAW       0.044700
     51 H10A         7.9050    -1.8510     1.1270 hc         1 SAW       0.044700
     52 H11         -8.2810    -3.2250     2.4680 ha         1 SAW       0.137000
     53 H12         -7.5890    -1.1070     3.4800 ha         1 SAW       0.135000
     54 H13         -7.0580     0.8250     2.1420 ha         1 SAW       0.139000
     55 H18         -6.5790     1.5060    -2.6590 ha         1 SAW       0.163000
     56 H19         -7.0950    -0.6900    -3.6440 ha         1 SAW       0.139000
     57 H20         -7.7480    -2.5630    -2.2080 ha         1 SAW       0.149000
     58 H22         -9.0690    -5.0480     1.4000 h1         1 SAW       0.038033
     59 H22A        -8.4770    -5.7920    -0.0860 h1         1 SAW       0.038033
     60 H22B        -7.3380    -5.0150     1.0120 h1         1 SAW       0.038033
     61 H23         -9.8950    -2.7140    -1.3730 h1         1 SAW       0.038033
     62 H23A        -9.8860    -4.4670    -1.5350 h1         1 SAW       0.038033
     63 H23B       -10.6060    -3.7120    -0.1020 h1         1 SAW       0.038033
     64 HN25         5.9650     0.1530    -0.5680 hn         1 SAW       0.311500
     65 H26          4.9490     1.2800     1.8830 h1         1 SAW       0.051700
     66 H26A         5.0580     2.4960     0.6230 h1         1 SAW       0.051700
     67 H27          3.6910     1.0490    -0.8920 hc         1 SAW       0.041200
     68 H27A         3.5970    -0.1750     0.3640 hc         1 SAW       0.041200
     69 H28          2.4460     1.4550     1.8680 hc         1 SAW       0.043700
     70 H28A         2.5410     2.6810     0.6230 hc         1 SAW       0.043700
     71 H29          1.1470     1.2620    -0.8900 hc         1 SAW       0.038200
     72 H29A         1.0600     0.0240     0.3450 hc         1 SAW       0.038200
     73 H30         -0.0880     1.6260     1.8810 hc         1 SAW       0.041200
     74 H30A         0.0180     2.8790     0.6640 hc         1 SAW       0.041200
     75 H31         -1.3790     1.5080    -0.8850 hc         1 SAW       0.038700
     76 H31A        -1.4860     0.2430     0.3200 hc         1 SAW       0.038700
     77 H32         -2.6530     1.7810     1.8790 hc         1 SAW       0.052200
     78 H32A        -2.4890     3.1030     0.7370 hc         1 SAW       0.052200
     79 H33         -3.8760     1.9270    -0.9100 h1         1 SAW       0.049700
     80 H33A        -4.0040     0.5190     0.1380 h1         1 SAW       0.049700
     81 HN34        -5.1760     1.9510     1.7510 hn         1 SAW       0.428800
     82 HO39        12.7460    -0.9740     0.4970 ho         1 SAW       0.400000
     83 N21         -8.4810    -3.7220    -0.1730 nh         1 SAW      -0.644000
     84 O35         -6.1360     3.2930    -1.1830 o          1 SAW      -0.605800
@<TRIPOS>BOND
     1     1     2 1   
     2     1     5 1   
     3     1    38 1   
     4     1    39 1   
     5     2     3 1   
     6     2     4 1   
     7     2    40 1   
     8     3     8 1   
     9     3    41 1   
    10     3    42 1   
    11     4     9 1   
    12     4    43 1   
    13     4    44 1   
    14     5     6 1   
    15     5     7 1   
    16     5    37 1   
    17     6     8 1   
    18     6    45 1   
    19     6    46 1   
    20     7     9 1   
    21     7    47 1   
    22     7    48 1   
    23     8    10 1   
    24     8    49 1   
    25     9    10 1   
    26     9    23 1   
    27    10    50 1   
    28    10    51 1   
    29    11    12 ar  
    30    11    14 ar  
    31    11    52 1   
    32    12    13 ar  
    33    12    53 1   
    34    13    16 ar  
    35    13    54 1   
    36    14    15 ar  
    37    14    83 1   
    38    15    16 ar  
    39    15    20 ar  
    40    16    17 ar  
    41    17    18 ar  
    42    17    34 1   
    43    18    19 ar  
    44    18    55 1   
    45    19    20 ar  
    46    19    56 1   
    47    20    57 1   
    48    21    58 1   
    49    21    59 1   
    50    21    60 1   
    51    21    83 1   
    52    22    61 1   
    53    22    62 1   
    54    22    63 1   
    55    22    83 1   
    56    23    24 1   
    57    23    36 2   
    58    24    25 1   
    59    24    64 1   
    60    25    26 1   
    61    25    65 1   
    62    25    66 1   
    63    26    27 1   
    64    26    67 1   
    65    26    68 1   
    66    27    28 1   
    67    27    69 1   
    68    27    70 1   
    69    28    29 1   
    70    28    71 1   
    71    28    72 1   
    72    29    30 1   
    73    29    73 1   
    74    29    74 1   
    75    30    31 1   
    76    30    75 1   
    77    30    76 1   
    78    31    32 1   
    79    31    77 1   
    80    31    78 1   
    81    32    33 1   
    82    32    79 1   
    83    32    80 1   
    84    33    34 1   
    85    33    81 1   
    86    34    35 2   
    87    34    84 2   
    88    37    82 1   
@<TRIPOS>SUBSTRUCTURE
     1 SAW         1 TEMP              0 ****  ****    0 ROOT
