@<TRIPOS>MOLECULE
SAW
   84    88     1     0     0
SMALL
No Charge or Current Charge


@<TRIPOS>ATOM
      1 C1           9.7210    -1.2060    -2.2290 c6         1 SAW      -0.100400
      2 C2           8.4080    -2.0260    -2.0490 c6         1 SAW      -0.055700
      3 C3           8.6130    -3.0930    -0.9390 c6         1 SAW      -0.072400
      4 C4           7.2500    -1.0720    -1.6380 c6         1 SAW      -0.064400
      5 C5          10.1040    -0.5060    -0.8900 c6         1 SAW       0.179000
      6 C6          10.2950    -1.5830     0.2150 c6         1 SAW      -0.100400
      7 C7           8.9570     0.4590    -0.4670 c6         1 SAW      -0.046400
      8 C8           8.9760    -2.3850     0.3950 c6         1 SAW      -0.055700
      9 C9           7.6030    -0.3120    -0.3170 c6         1 SAW      -0.123000
     10 C10          7.8280    -1.4120     0.7920 c6         1 SAW      -0.064400
     11 C11         -6.6150    -2.6570     1.1660 ca         1 SAW      -0.173000
     12 C12         -6.6010    -1.5550     2.0240 ca         1 SAW      -0.056000
     13 C13         -6.6680    -0.2570     1.5020 ca         1 SAW      -0.155000
     14 C14         -6.6840    -2.4780    -0.2230 ca         1 SAW       0.293000
     15 C15         -6.7390    -1.1620    -0.7600 ca         1 SAW      -0.067000
     16 C16         -6.7490    -0.0290     0.1050 ca         1 SAW       0.060000
     17 C17         -6.8120     1.2850    -0.4580 ca         1 SAW      -0.304500
     18 C18         -6.8350     1.4340    -1.8620 ca         1 SAW       0.014000
     19 C19         -6.8070     0.3170    -2.7020 ca         1 SAW      -0.154000
     20 C20         -6.7630    -0.9710    -2.1590 ca         1 SAW      -0.026000
     21 C22         -5.6240    -4.6370    -0.9500 c3         1 SAW       0.171100
     22 C23         -7.9650    -4.0610    -1.6870 c3         1 SAW       0.171100
     23 C24          6.4580     0.6810     0.0560 c          1 SAW       0.605100
     24 N25          5.8020     0.4810     1.2540 ns         1 SAW      -0.511900
     25 C26          4.6790     1.2850     1.7400 c3         1 SAW       0.104000
     26 C27          3.3490     0.8900     1.0660 c3         1 SAW      -0.094400
     27 C28          2.1480     1.7110     1.5820 c3         1 SAW      -0.073400
     28 C29          0.8140     1.3160     0.9100 c3         1 SAW      -0.074400
     29 C30         -0.3880     2.1370     1.4250 c3         1 SAW      -0.074400
     30 C31         -1.7210     1.7410     0.7520 c3         1 SAW      -0.075400
     31 C32         -2.9260     2.5610     1.2670 c3         1 SAW      -0.079400
     32 C33         -4.2520     2.1620     0.5940 c3         1 SAW       0.207800
     33 N34         -5.3470     2.9880     1.1280 n7         1 SAW      -0.878300
     34 S36         -6.8910     2.8250     0.5080 sy         1 SAW       1.152600
     35 O37         -7.7290     2.6190     1.6900 o          1 SAW      -0.535000
     36 O38          6.1560     1.6090    -0.6820 o          1 SAW      -0.601100
     37 O39         11.3160     0.2300    -1.0600 oh         1 SAW      -0.650000
     38 H1          10.5310    -1.8710    -2.5590 hc         1 SAW       0.047450
     39 H1A          9.5900    -0.4600    -3.0250 hc         1 SAW       0.047450
     40 H2           8.1530    -2.5250    -2.9940 hc         1 SAW       0.053700
     41 H3           7.7010    -3.6930    -0.8160 hc         1 SAW       0.041700
     42 H3A          9.4090    -3.7940    -1.2270 hc         1 SAW       0.041700
     43 H4           7.0650    -0.3530    -2.4480 hc         1 SAW       0.044700
     44 H4A          6.3170    -1.6400    -1.5140 hc         1 SAW       0.044700
     45 H6          11.1150    -2.2660    -0.0490 hc         1 SAW       0.047450
     46 H6A         10.5790    -1.1090     1.1650 hc         1 SAW       0.047450
     47 H7           9.2140     0.9630     0.4750 hc         1 SAW       0.069700
     48 H7A          8.8530     1.2530    -1.2190 hc         1 SAW       0.069700
     49 H8           9.1090    -3.1380     1.1850 hc         1 SAW       0.053700
     50 H10          6.9070    -1.9910     0.9520 hc         1 SAW       0.044700
     51 H10A         8.0740    -0.9430     1.7560 hc         1 SAW       0.044700
     52 H11         -6.5750    -3.6600     1.5820 ha         1 SAW       0.119000
     53 H12         -6.5390    -1.7050     3.1000 ha         1 SAW       0.117000
     54 H13         -6.6320     0.5540     2.2160 ha         1 SAW       0.121000
     55 H18         -6.8760     2.4210    -2.3200 ha         1 SAW       0.145000
     56 H19         -6.8220     0.4500    -3.7810 ha         1 SAW       0.121000
     57 H20         -6.7340    -1.8170    -2.8400 ha         1 SAW       0.131000
     58 H22         -5.8900    -5.4270    -0.2360 h1         1 SAW       0.038033
     59 H22A        -5.4410    -5.0940    -1.9310 h1         1 SAW       0.038033
     60 H22B        -4.6890    -4.1650    -0.6190 h1         1 SAW       0.038033
     61 H23         -8.7090    -3.2540    -1.6580 h1         1 SAW       0.038033
     62 H23A        -7.7870    -4.3210    -2.7390 h1         1 SAW       0.038033
     63 H23B        -8.3840    -4.9360    -1.1720 h1         1 SAW       0.038033
     64 HN25         6.1080    -0.3040     1.8160 hn         1 SAW       0.311500
     65 H26          4.5950     1.1450     2.8260 h1         1 SAW       0.051700
     66 H26A         4.8890     2.3470     1.5520 h1         1 SAW       0.051700
     67 H27          3.4380     1.0240    -0.0190 hc         1 SAW       0.041200
     68 H27A         3.1620    -0.1770     1.2440 hc         1 SAW       0.041200
     69 H28          2.0580     1.5760     2.6670 hc         1 SAW       0.043700
     70 H28A         2.3380     2.7770     1.4050 hc         1 SAW       0.043700
     71 H29          0.9040     1.4510    -0.1750 hc         1 SAW       0.038200
     72 H29A         0.6240     0.2500     1.0860 hc         1 SAW       0.038200
     73 H30         -0.4780     2.0020     2.5100 hc         1 SAW       0.041200
     74 H30A        -0.1980     3.2030     1.2490 hc         1 SAW       0.041200
     75 H31         -1.6310     1.8760    -0.3330 hc         1 SAW       0.038700
     76 H31A        -1.9110     0.6750     0.9280 hc         1 SAW       0.038700
     77 H32         -3.0160     2.4270     2.3520 hc         1 SAW       0.052200
     78 H32A        -2.7400     3.6280     1.0880 hc         1 SAW       0.052200
     79 H33         -4.1540     2.3080    -0.4910 h1         1 SAW       0.049700
     80 H33A        -4.4250     1.0940     0.7770 h1         1 SAW       0.049700
     81 HN34        -5.5080     2.7650     2.1080 hn         1 SAW       0.484000
     82 HO39        12.0020    -0.4200    -1.3240 ho         1 SAW       0.439000
     83 N21         -6.7050    -3.6330    -1.0420 nh         1 SAW      -0.782400
     84 O35         -7.0860     3.9810    -0.3710 o          1 SAW      -0.535000
@<TRIPOS>BOND
     1     1     2 1   
     2     1     5 1   
     3     1    38 1   
     4     1    39 1   
     5     2     3 1   
     6     2     4 1   
     7     2    40 1   
     8     3     8 1   
     9     3    41 1   
    10     3    42 1   
    11     4     9 1   
    12     4    43 1   
    13     4    44 1   
    14     5     6 1   
    15     5     7 1   
    16     5    37 1   
    17     6     8 1   
    18     6    45 1   
    19     6    46 1   
    20     7     9 1   
    21     7    47 1   
    22     7    48 1   
    23     8    10 1   
    24     8    49 1   
    25     9    10 1   
    26     9    23 1   
    27    10    50 1   
    28    10    51 1   
    29    11    12 ar  
    30    11    14 ar  
    31    11    52 1   
    32    12    13 ar  
    33    12    53 1   
    34    13    16 ar  
    35    13    54 1   
    36    14    15 ar  
    37    14    83 1   
    38    15    16 ar  
    39    15    20 ar  
    40    16    17 ar  
    41    17    18 ar  
    42    17    34 1   
    43    18    19 ar  
    44    18    55 1   
    45    19    20 ar  
    46    19    56 1   
    47    20    57 1   
    48    21    58 1   
    49    21    59 1   
    50    21    60 1   
    51    21    83 1   
    52    22    61 1   
    53    22    62 1   
    54    22    63 1   
    55    22    83 1   
    56    23    24 1   
    57    23    36 2   
    58    24    25 1   
    59    24    64 1   
    60    25    26 1   
    61    25    65 1   
    62    25    66 1   
    63    26    27 1   
    64    26    67 1   
    65    26    68 1   
    66    27    28 1   
    67    27    69 1   
    68    27    70 1   
    69    28    29 1   
    70    28    71 1   
    71    28    72 1   
    72    29    30 1   
    73    29    73 1   
    74    29    74 1   
    75    30    31 1   
    76    30    75 1   
    77    30    76 1   
    78    31    32 1   
    79    31    77 1   
    80    31    78 1   
    81    32    33 1   
    82    32    79 1   
    83    32    80 1   
    84    33    34 1   
    85    33    81 1   
    86    34    35 2   
    87    34    84 2   
    88    37    82 1   
@<TRIPOS>SUBSTRUCTURE
     1 SAW         1 TEMP              0 ****  ****    0 ROOT
