@<TRIPOS>MOLECULE
SAX
   52    52     1     0     0
SMALL
bcc


@<TRIPOS>ATOM
      1 C1          -5.4340     0.2910    -0.0020 ca         1 SAX      -0.167600
      2 O1          -7.7370     0.6720     0.0550 oh         1 SAX      -0.467100
      3 C2          -6.7230    -0.2240     0.0110 ca         1 SAX       0.165100
      4 O2          -3.1400    -0.0190    -0.0540 os         1 SAX      -0.289900
      5 C3          -6.9530    -1.6000    -0.0240 ca         1 SAX      -0.274000
      6 O3          -5.1270     2.3140     1.1600 o          1 SAX      -0.817800
      7 C4          -5.8700    -2.4590    -0.0710 ca         1 SAX      -0.095000
      8 O4          -5.0960     2.3580    -1.0710 o          1 SAX      -0.817800
      9 C5          -4.5670    -1.9760    -0.0840 ca         1 SAX      -0.270000
     10 C6          -4.3590    -0.5980    -0.0490 ca         1 SAX       0.175100
     11 C7          -1.9830    -0.8350    -0.1030 c3         1 SAX       0.148400
     12 C8          -0.7680     0.0700    -0.1010 c3         1 SAX      -0.083400
     13 C9           0.5310    -0.7270    -0.1060 c3         1 SAX      -0.072400
     14 C10          1.7660     0.1660    -0.0850 c3         1 SAX      -0.075400
     15 C11          3.0720    -0.6170    -0.0510 c3         1 SAX      -0.074400
     16 C12          4.3050     0.2800    -0.0660 c3         1 SAX      -0.075400
     17 C13          5.6160    -0.4940    -0.0100 c3         1 SAX      -0.074400
     18 C14          6.8450     0.4070    -0.0250 c3         1 SAX      -0.075400
     19 C15          8.1590    -0.3610     0.0330 c3         1 SAX      -0.074400
     20 C16          9.3840     0.5460     0.0390 c3         1 SAX      -0.076400
     21 C17         10.7030    -0.2180     0.0180 c3         1 SAX      -0.075400
     22 C18         11.9160     0.7030     0.0250 c3         1 SAX      -0.088100
     23 C19         -5.1950     1.7960     0.0320 c          1 SAX       0.954200
     24 HO1         -8.5840     0.2120     0.0620 ho         1 SAX       0.391000
     25 H3          -7.9650    -1.9900    -0.0140 ha         1 SAX       0.106000
     26 H4          -6.0380    -3.5280    -0.0980 ha         1 SAX       0.099000
     27 H5          -3.7440    -2.6760    -0.1190 ha         1 SAX       0.111000
     28 H7          -1.9510    -1.5100     0.7610 h1         1 SAX       0.016200
     29 H7A         -1.9880    -1.4570    -1.0060 h1         1 SAX       0.016200
     30 H8          -0.8000     0.7250    -0.9770 hc         1 SAX       0.061700
     31 H8A         -0.7980     0.7160     0.7810 hc         1 SAX       0.061700
     32 H9           0.5540    -1.3990     0.7590 hc         1 SAX       0.031200
     33 H9A          0.5640    -1.3710    -0.9930 hc         1 SAX       0.031200
     34 H10          1.7550     0.8210    -0.9620 hc         1 SAX       0.041200
     35 H10A         1.7170     0.8270     0.7880 hc         1 SAX       0.041200
     36 H11          3.0940    -1.2480     0.8450 hc         1 SAX       0.033700
     37 H11A         3.1110    -1.3020    -0.9050 hc         1 SAX       0.033700
     38 H12          4.2890     0.9040    -0.9660 hc         1 SAX       0.037700
     39 H12A         4.2570     0.9720     0.7820 hc         1 SAX       0.037700
     40 H13          5.6330    -1.1150     0.8920 hc         1 SAX       0.034700
     41 H13A         5.6650    -1.1890    -0.8560 hc         1 SAX       0.034700
     42 H14          6.8270     1.0280    -0.9280 hc         1 SAX       0.037200
     43 H14A         6.7930     1.1030     0.8200 hc         1 SAX       0.037200
     44 H15          8.1710    -0.9920     0.9290 hc         1 SAX       0.035700
     45 H15A         8.2180    -1.0460    -0.8200 hc         1 SAX       0.035700
     46 H16          9.3420     1.2200    -0.8240 hc         1 SAX       0.037200
     47 H16A         9.3540     1.1890     0.9260 hc         1 SAX       0.037200
     48 H17         10.7460    -0.8890     0.8810 hc         1 SAX       0.035700
     49 H17A        10.7350    -0.8610    -0.8670 hc         1 SAX       0.035700
     50 H18         12.8500     0.1410     0.0110 hc         1 SAX       0.029367
     51 H18A        11.9130     1.3620    -0.8460 hc         1 SAX       0.029367
     52 H18B        11.9240     1.3350     0.9150 hc         1 SAX       0.029367
@<TRIPOS>BOND
     1     1     3 ar  
     2     1    10 ar  
     3     1    23 1   
     4     2     3 1   
     5     2    24 1   
     6     3     5 ar  
     7     4    10 1   
     8     4    11 1   
     9     5     7 ar  
    10     5    25 1   
    11     6    23 1   
    12     7     9 ar  
    13     7    26 1   
    14     8    23 1   
    15     9    10 ar  
    16     9    27 1   
    17    11    12 1   
    18    11    28 1   
    19    11    29 1   
    20    12    13 1   
    21    12    30 1   
    22    12    31 1   
    23    13    14 1   
    24    13    32 1   
    25    13    33 1   
    26    14    15 1   
    27    14    34 1   
    28    14    35 1   
    29    15    16 1   
    30    15    36 1   
    31    15    37 1   
    32    16    17 1   
    33    16    38 1   
    34    16    39 1   
    35    17    18 1   
    36    17    40 1   
    37    17    41 1   
    38    18    19 1   
    39    18    42 1   
    40    18    43 1   
    41    19    20 1   
    42    19    44 1   
    43    19    45 1   
    44    20    21 1   
    45    20    46 1   
    46    20    47 1   
    47    21    22 1   
    48    21    48 1   
    49    21    49 1   
    50    22    50 1   
    51    22    51 1   
    52    22    52 1   
@<TRIPOS>SUBSTRUCTURE
     1 SAX         1 TEMP              0 ****  ****    0 ROOT
