@<TRIPOS>MOLECULE
SAX
   52    52     1     0     0
SMALL
No Charge or Current Charge


@<TRIPOS>ATOM
      1 C1          -5.5650     0.3190    -0.0420 ca         1 SAX      -0.167600
      2 O1          -7.9500     0.6640    -0.0430 oh         1 SAX      -0.506100
      3 C2          -6.8800    -0.1800    -0.0510 ca         1 SAX       0.165100
      4 O2          -3.1970    -0.0570    -0.0410 os         1 SAX      -0.313100
      5 C3          -7.1120    -1.5630    -0.0680 ca         1 SAX      -0.256000
      6 O3          -5.2180     2.3450     1.0630 o          1 SAX      -0.712500
      7 C4          -6.0330    -2.4580    -0.0760 ca         1 SAX      -0.077000
      8 O4          -5.2130     2.3710    -1.0970 o          1 SAX      -0.712500
      9 C5          -4.7190    -1.9680    -0.0670 ca         1 SAX      -0.252000
     10 C6          -4.4780    -0.5740    -0.0500 ca         1 SAX       0.175100
     11 C7          -2.0290    -0.8930    -0.0480 c3         1 SAX       0.171600
     12 C8          -0.7940     0.0270    -0.0350 c3         1 SAX      -0.083400
     13 C9           0.5380    -0.7550    -0.0410 c3         1 SAX      -0.072400
     14 C10          1.7790     0.1650    -0.0270 c3         1 SAX      -0.075400
     15 C11          3.1100    -0.6180    -0.0330 c3         1 SAX      -0.074400
     16 C12          4.3520     0.3010    -0.0190 c3         1 SAX      -0.075400
     17 C13          5.6830    -0.4820    -0.0240 c3         1 SAX      -0.074400
     18 C14          6.9240     0.4370    -0.0110 c3         1 SAX      -0.075400
     19 C15          8.2560    -0.3460    -0.0160 c3         1 SAX      -0.074400
     20 C16          9.4970     0.5720    -0.0030 c3         1 SAX      -0.076400
     21 C17         10.8280    -0.2110    -0.0080 c3         1 SAX      -0.075400
     22 C18         12.0670     0.7050     0.0060 c3         1 SAX      -0.088100
     23 C19         -5.3150     1.7900    -0.0240 c          1 SAX       0.743600
     24 HO1         -8.7640     0.1190    -0.0510 ho         1 SAX       0.430000
     25 H3          -8.1270    -1.9510    -0.0740 ha         1 SAX       0.088000
     26 H4          -6.2140    -3.5310    -0.0890 ha         1 SAX       0.081000
     27 H5          -3.9010    -2.6820    -0.0740 ha         1 SAX       0.093000
     28 H7          -2.0130    -1.5420     0.8370 h1         1 SAX       0.016200
     29 H7A         -2.0080    -1.5210    -0.9490 h1         1 SAX       0.016200
     30 H8          -0.8310     0.6870    -0.9100 hc         1 SAX       0.061700
     31 H8A         -0.8360     0.6670     0.8560 hc         1 SAX       0.061700
     32 H9           0.5700    -1.4170     0.8340 hc         1 SAX       0.031200
     33 H9A          0.5750    -1.3960    -0.9300 hc         1 SAX       0.031200
     34 H10          1.7470     0.8270    -0.9010 hc         1 SAX       0.041200
     35 H10A         1.7420     0.8060     0.8630 hc         1 SAX       0.041200
     36 H11          3.1430    -1.2800     0.8420 hc         1 SAX       0.033700
     37 H11A         3.1470    -1.2590    -0.9220 hc         1 SAX       0.033700
     38 H12          4.3200     0.9630    -0.8930 hc         1 SAX       0.037700
     39 H12A         4.3150     0.9430     0.8710 hc         1 SAX       0.037700
     40 H13          5.7150    -1.1440     0.8500 hc         1 SAX       0.034700
     41 H13A         5.7200    -1.1240    -0.9140 hc         1 SAX       0.034700
     42 H14          6.8920     1.0990    -0.8850 hc         1 SAX       0.037200
     43 H14A         6.8880     1.0780     0.8790 hc         1 SAX       0.037200
     44 H15          8.2880    -1.0080     0.8580 hc         1 SAX       0.035700
     45 H15A         8.2920    -0.9880    -0.9060 hc         1 SAX       0.035700
     46 H16          9.4650     1.2340    -0.8770 hc         1 SAX       0.037200
     47 H16A         9.4610     1.2140     0.8870 hc         1 SAX       0.037200
     48 H17         10.8650    -0.8720     0.8660 hc         1 SAX       0.035700
     49 H17A        10.8700    -0.8520    -0.8970 hc         1 SAX       0.035700
     50 H18         12.9860     0.1060     0.0010 hc         1 SAX       0.029367
     51 H18A        12.0780     1.3560    -0.8770 hc         1 SAX       0.029367
     52 H18B        12.0740     1.3360     0.9030 hc         1 SAX       0.029367
@<TRIPOS>BOND
     1     1     3 ar  
     2     1    10 ar  
     3     1    23 1   
     4     2     3 1   
     5     2    24 1   
     6     3     5 ar  
     7     4    10 1   
     8     4    11 1   
     9     5     7 ar  
    10     5    25 1   
    11     6    23 1   
    12     7     9 ar  
    13     7    26 1   
    14     8    23 1   
    15     9    10 ar  
    16     9    27 1   
    17    11    12 1   
    18    11    28 1   
    19    11    29 1   
    20    12    13 1   
    21    12    30 1   
    22    12    31 1   
    23    13    14 1   
    24    13    32 1   
    25    13    33 1   
    26    14    15 1   
    27    14    34 1   
    28    14    35 1   
    29    15    16 1   
    30    15    36 1   
    31    15    37 1   
    32    16    17 1   
    33    16    38 1   
    34    16    39 1   
    35    17    18 1   
    36    17    40 1   
    37    17    41 1   
    38    18    19 1   
    39    18    42 1   
    40    18    43 1   
    41    19    20 1   
    42    19    44 1   
    43    19    45 1   
    44    20    21 1   
    45    20    46 1   
    46    20    47 1   
    47    21    22 1   
    48    21    48 1   
    49    21    49 1   
    50    22    50 1   
    51    22    51 1   
    52    22    52 1   
@<TRIPOS>SUBSTRUCTURE
     1 SAX         1 TEMP              0 ****  ****    0 ROOT
