@<TRIPOS>MOLECULE
SAZ
   41    41     1     0     0
SMALL
No Charge or Current Charge


@<TRIPOS>ATOM
      1 C01         -1.3290     0.5470     0.2990 c6         1 SAZ       0.112300
      2 C02         -2.5920     1.3210    -0.1760 c6         1 SAZ      -0.051200
      3 C03         -1.2760    -0.8130    -0.4440 c6         1 SAZ      -0.098400
      4 C05         -3.8430     0.4520    -0.2290 c2         1 SAZ      -0.245200
      5 C07         -2.5180    -1.6760    -0.1180 c6         1 SAZ      -0.046200
      6 C08          3.7360     0.4750     0.5600 c2         1 SAZ      -0.282200
      7 C09          2.5380     1.3060     0.1390 c3         1 SAZ      -0.048200
      8 C13          4.1920    -0.6470    -0.0280 c2         1 SAZ      -0.044400
      9 C16          3.5640    -1.3180    -1.2400 c3         1 SAZ      -0.073900
     10 C17          5.4160    -1.3880     0.4740 c3         1 SAZ      -0.073900
     11 C25         -3.8240    -0.8910    -0.1980 c2         1 SAZ      -0.083400
     12 C26         -5.0790    -1.7420    -0.2170 c3         1 SAZ      -0.061900
     13 N35         -0.0410     1.3680     0.0720 nx         1 SAZ      -0.665000
     14 C36         -0.1410     2.8100     0.6060 c3         1 SAZ       0.072900
     15 H01         -1.4010     0.3670     1.3770 hx         1 SAZ       0.102700
     16 H021        -2.7810     2.1640     0.5010 hc         1 SAZ       0.064700
     17 H022        -2.4170     1.7510    -1.1720 hc         1 SAZ       0.064700
     18 H031        -1.2210    -0.6380    -1.5280 hc         1 SAZ       0.062700
     19 H032        -0.3800    -1.3850    -0.1750 hc         1 SAZ       0.062700
     20 H05         -4.7930     0.9910    -0.2800 ha         1 SAZ       0.204000
     21 H071        -2.5500    -2.5270    -0.8130 hc         1 SAZ       0.074200
     22 H072        -2.4200    -2.1050     0.8880 hc         1 SAZ       0.074200
     23 H08          4.2580     0.8770     1.4310 ha         1 SAZ       0.190000
     24 H091         2.5130     1.4140    -0.9520 hc         1 SAZ       0.060200
     25 H092         2.6310     2.3210     0.5440 hc         1 SAZ       0.060200
     26 H101         1.1810     0.6830     1.7070 hx         1 SAZ       0.098200
     27 H102         1.2160    -0.3670     0.2890 hx         1 SAZ       0.098200
     28 H161         2.6620    -0.8070    -1.5920 hc         1 SAZ       0.053700
     29 H162         4.2690    -1.3490    -2.0790 hc         1 SAZ       0.053700
     30 H163         3.2780    -2.3510    -1.0100 hc         1 SAZ       0.053700
     31 H171         5.8610    -0.8960     1.3470 hc         1 SAZ       0.053700
     32 H172         5.1640    -2.4140     0.7680 hc         1 SAZ       0.053700
     33 H173         6.1900    -1.4420    -0.3010 hc         1 SAZ       0.053700
     34 H261        -5.1430    -2.3700     0.6800 hc         1 SAZ       0.058367
     35 H262        -5.9860    -1.1270    -0.2530 hc         1 SAZ       0.058367
     36 H263        -5.0950    -2.4040    -1.0910 hc         1 SAZ       0.058367
     37 H35          0.0840     1.4430    -0.9630 hn         1 SAZ       0.493000
     38 H361         0.7780     3.3560     0.3800 hx         1 SAZ       0.096700
     39 H362        -0.9810     3.3260     0.1370 hx         1 SAZ       0.096700
     40 H363        -0.2900     2.7870     1.6880 hx         1 SAZ       0.096700
     41 C10          1.2170     0.6750     0.6150 c3         1 SAZ       0.089600
@<TRIPOS>BOND
     1     1     2 1   
     2     1     3 1   
     3     1    13 1   
     4     1    15 1   
     5     2     4 1   
     6     2    16 1   
     7     2    17 1   
     8     3     5 1   
     9     3    18 1   
    10     3    19 1   
    11     4    11 2   
    12     4    20 1   
    13     5    11 1   
    14     5    21 1   
    15     5    22 1   
    16     6     7 1   
    17     6     8 2   
    18     6    23 1   
    19     7    24 1   
    20     7    25 1   
    21     7    41 1   
    22     8     9 1   
    23     8    10 1   
    24     9    28 1   
    25     9    29 1   
    26     9    30 1   
    27    10    31 1   
    28    10    32 1   
    29    10    33 1   
    30    11    12 1   
    31    12    34 1   
    32    12    35 1   
    33    12    36 1   
    34    13    14 1   
    35    13    37 1   
    36    13    41 1   
    37    14    38 1   
    38    14    39 1   
    39    14    40 1   
    40    26    41 1   
    41    27    41 1   
@<TRIPOS>SUBSTRUCTURE
     1 SAZ         1 TEMP              0 ****  ****    0 ROOT
