@<TRIPOS>MOLECULE
SAZ
   41    41     1     0     0
SMALL
abcg2


@<TRIPOS>ATOM
      1 C01         -1.3020     0.5410     0.2270 c6         1 SAZ       0.112300
      2 C02         -2.5790     1.3550     0.0800 c6         1 SAZ      -0.051200
      3 C03         -1.3130    -0.6010    -0.7790 c6         1 SAZ      -0.098400
      4 C05         -3.7820     0.4560     0.0490 c2         1 SAZ      -0.245200
      5 C07         -2.4480    -1.5620    -0.4490 c6         1 SAZ      -0.046200
      6 C08          3.6320     0.4910     0.3830 c2         1 SAZ      -0.282200
      7 C09          2.4220     1.1380    -0.2250 c3         1 SAZ      -0.048200
      8 C13          4.1600    -0.6850     0.0340 c2         1 SAZ      -0.044400
      9 C16          3.6240    -1.5620    -1.0570 c3         1 SAZ      -0.073900
     10 C17          5.3690    -1.2280     0.7360 c3         1 SAZ      -0.073900
     11 C25         -3.7440    -0.8580    -0.1690 c2         1 SAZ      -0.083400
     12 C26         -4.9700    -1.7160    -0.1370 c3         1 SAZ      -0.061900
     13 N35         -0.0650     1.3910     0.0390 nx         1 SAZ      -0.665000
     14 C36         -0.1620     2.7250     0.6860 c3         1 SAZ       0.072900
     15 H01         -1.2280     0.1540     1.2470 hx         1 SAZ       0.102700
     16 H021        -2.6920     2.0540     0.9100 hc         1 SAZ       0.064700
     17 H022        -2.5420     1.9610    -0.8330 hc         1 SAZ       0.064700
     18 H031        -1.4560    -0.1880    -1.7830 hc         1 SAZ       0.062700
     19 H032        -0.3740    -1.1560    -0.7930 hc         1 SAZ       0.062700
     20 H05         -4.7340     0.9390     0.2400 ha         1 SAZ       0.204000
     21 H071        -2.5800    -2.2590    -1.2810 hc         1 SAZ       0.074200
     22 H072        -2.1790    -2.1820     0.4130 hc         1 SAZ       0.074200
     23 H08          4.0890     1.0390     1.2010 ha         1 SAZ       0.190000
     24 H091         2.3210     0.8930    -1.2850 hc         1 SAZ       0.060200
     25 H092         2.5320     2.2230    -0.1640 hc         1 SAZ       0.060200
     26 H101         1.2450     0.8690     1.5870 hx         1 SAZ       0.098200
     27 H102         1.0330    -0.3860     0.3760 hx         1 SAZ       0.098200
     28 H161         2.7320    -1.1700    -1.5410 hc         1 SAZ       0.053700
     29 H162         4.3800    -1.7190    -1.8300 hc         1 SAZ       0.053700
     30 H163         3.3770    -2.5500    -0.6600 hc         1 SAZ       0.053700
     31 H171         5.7190    -0.5670     1.5280 hc         1 SAZ       0.053700
     32 H172         5.1570    -2.2050     1.1780 hc         1 SAZ       0.053700
     33 H173         6.1910    -1.3770     0.0320 hc         1 SAZ       0.053700
     34 H261        -4.8760    -2.4970     0.6210 hc         1 SAZ       0.058367
     35 H262        -5.8680    -1.1390     0.0820 hc         1 SAZ       0.058367
     36 H263        -5.1150    -2.2250    -1.0930 hc         1 SAZ       0.058367
     37 H35          0.0350     1.5520    -0.9660 hn         1 SAZ       0.493000
     38 H361         0.7970     3.2280     0.6080 hx         1 SAZ       0.096700
     39 H362        -0.9120     3.3270     0.1850 hx         1 SAZ       0.096700
     40 H363        -0.4200     2.5910     1.7320 hx         1 SAZ       0.096700
     41 C10          1.1730     0.6830     0.5160 c3         1 SAZ       0.089600
@<TRIPOS>BOND
     1     1     2 1   
     2     1     3 1   
     3     1    13 1   
     4     1    15 1   
     5     2     4 1   
     6     2    16 1   
     7     2    17 1   
     8     3     5 1   
     9     3    18 1   
    10     3    19 1   
    11     4    11 2   
    12     4    20 1   
    13     5    11 1   
    14     5    21 1   
    15     5    22 1   
    16     6     7 1   
    17     6     8 2   
    18     6    23 1   
    19     7    24 1   
    20     7    25 1   
    21     7    41 1   
    22     8     9 1   
    23     8    10 1   
    24     9    28 1   
    25     9    29 1   
    26     9    30 1   
    27    10    31 1   
    28    10    32 1   
    29    10    33 1   
    30    11    12 1   
    31    12    34 1   
    32    12    35 1   
    33    12    36 1   
    34    13    14 1   
    35    13    37 1   
    36    13    41 1   
    37    14    38 1   
    38    14    39 1   
    39    14    40 1   
    40    26    41 1   
    41    27    41 1   
@<TRIPOS>SUBSTRUCTURE
     1 SAZ         1 TEMP              0 ****  ****    0 ROOT
