@<TRIPOS>MOLECULE
SB0
   48    51     1     0     0
SMALL
abcg2


@<TRIPOS>ATOM
      1 F8          -6.2560    -1.8090     0.4340 f          1 SB0      -0.183000
      2 C2          -4.9180    -1.7500     0.3360 ca         1 SB0       0.173000
      3 C1          -4.2640    -2.6590    -0.4720 ca         1 SB0      -0.157500
      4 C6          -2.8830    -2.5920    -0.5640 ca         1 SB0      -0.057500
      5 C5          -2.1560    -1.6280     0.1370 ca         1 SB0      -0.116500
      6 C4          -2.8530    -0.7380     0.9540 ca         1 SB0      -0.057500
      7 C3          -4.2350    -0.7890     1.0560 ca         1 SB0      -0.157500
      8 C7          -0.6950    -1.6090     0.0300 cc         1 SB0       0.352500
      9 N9           0.0030    -2.7680    -0.1330 nc         1 SB0      -0.674000
     10 C10          1.2650    -2.4250    -0.1520 cd         1 SB0       0.407400
     11 N11          1.4380    -1.0980    -0.0000 na         1 SB0      -0.152500
     12 C19          2.7270    -0.4120    -0.0560 c6         1 SB0       0.077300
     13 C20          3.4650    -0.7250    -1.3550 c6         1 SB0      -0.086900
     14 C21          4.8010     0.0080    -1.4000 c6         1 SB0      -0.093900
     15 C22          5.6600    -0.3410    -0.1950 c6         1 SB0       0.170300
     16 O25          6.8720     0.3750    -0.3020 oh         1 SB0      -0.654000
     17 C23          4.9180    -0.0230     1.0990 c6         1 SB0      -0.093900
     18 C24          3.5780    -0.7480     1.1650 c6         1 SB0      -0.086900
     19 C12          0.1820    -0.5480     0.1090 cd         1 SB0      -0.268500
     20 C13         -0.0720     0.8840     0.2670 ca         1 SB0       0.241500
     21 N14         -0.9660     1.4230    -0.5530 nb         1 SB0      -0.176000
     22 C15         -1.2230     2.7120    -0.3940 ca         1 SB0       0.359300
     23 O26         -2.1300     3.1830    -1.2350 os         1 SB0      -0.428300
     24 C27         -2.4780     4.5610    -1.1590 c3         1 SB0       0.162900
     25 N16         -0.6690     3.5280     0.4880 nb         1 SB0      -0.254000
     26 C17          0.2260     2.9820     1.3020 ca         1 SB0       0.147900
     27 C18          0.5670     1.6450     1.2460 ca         1 SB0      -0.268000
     28 H1          -4.8210    -3.4080    -1.0200 ha         1 SB0       0.129000
     29 H2          -2.3610    -3.3000    -1.1940 ha         1 SB0       0.121500
     30 H3          -2.3220    -0.0040     1.5450 ha         1 SB0       0.121500
     31 H4          -4.7690    -0.0990     1.6960 ha         1 SB0       0.129000
     32 H5           2.0920    -3.1070    -0.2780 h5         1 SB0       0.057100
     33 H6           2.5140     0.6580    -0.0460 h1         1 SB0       0.076700
     34 H7           3.6380    -1.8020    -1.4380 hc         1 SB0       0.055950
     35 H8           2.8470    -0.4350    -2.2070 hc         1 SB0       0.055950
     36 H9           5.3240    -0.2510    -2.3230 hc         1 SB0       0.056450
     37 H10          4.6280     1.0900    -1.4220 hc         1 SB0       0.056450
     38 H11          5.8520    -1.4260    -0.2190 h1         1 SB0       0.029700
     39 H12          7.4420     0.1110     0.4270 ho         1 SB0       0.445000
     40 H13          5.5270    -0.3080     1.9620 hc         1 SB0       0.056450
     41 H14          4.7600     1.0580     1.1660 hc         1 SB0       0.056450
     42 H15          3.0470    -0.4730     2.0790 hc         1 SB0       0.055950
     43 H16          3.7430    -1.8290     1.2120 hc         1 SB0       0.055950
     44 H17         -3.2300     4.7180    -1.9270 h1         1 SB0       0.051033
     45 H18         -2.8970     4.8160    -0.1860 h1         1 SB0       0.051033
     46 H19         -1.6200     5.2040    -1.3550 h1         1 SB0       0.051033
     47 H20          0.6800     3.6370     2.0350 h4         1 SB0       0.025100
     48 H21          1.2710     1.2160     1.9440 ha         1 SB0       0.138000
@<TRIPOS>BOND
     1     1     2 1   
     2     2     3 ar  
     3     2     7 ar  
     4     3     4 ar  
     5     3    28 1   
     6     4     5 ar  
     7     4    29 1   
     8     5     6 ar  
     9     5     8 1   
    10     6     7 ar  
    11     6    30 1   
    12     7    31 1   
    13     8     9 1   
    14     8    19 2   
    15     9    10 2   
    16    10    11 1   
    17    10    32 1   
    18    11    12 1   
    19    11    19 1   
    20    12    13 1   
    21    12    18 1   
    22    12    33 1   
    23    13    14 1   
    24    13    34 1   
    25    13    35 1   
    26    14    15 1   
    27    14    36 1   
    28    14    37 1   
    29    15    16 1   
    30    15    17 1   
    31    15    38 1   
    32    16    39 1   
    33    17    18 1   
    34    17    40 1   
    35    17    41 1   
    36    18    42 1   
    37    18    43 1   
    38    19    20 1   
    39    20    21 ar  
    40    20    27 ar  
    41    21    22 ar  
    42    22    23 1   
    43    22    25 ar  
    44    23    24 1   
    45    24    44 1   
    46    24    45 1   
    47    24    46 1   
    48    25    26 ar  
    49    26    27 ar  
    50    26    47 1   
    51    27    48 1   
@<TRIPOS>SUBSTRUCTURE
     1 SB0         1 TEMP              0 ****  ****    0 ROOT
