@<TRIPOS>MOLECULE
SB0
   48    51     1     0     0
SMALL
No Charge or Current Charge


@<TRIPOS>ATOM
      1 F8          -6.2680    -1.4500     0.4180 f          1 SB0      -0.183000
      2 C2          -4.9210    -1.5020     0.3340 ca         1 SB0       0.173000
      3 C1          -4.3130    -2.2610    -0.6770 ca         1 SB0      -0.157500
      4 C6          -2.9100    -2.3180    -0.7630 ca         1 SB0      -0.057500
      5 C5          -2.1080    -1.5960     0.1470 ca         1 SB0      -0.116500
      6 C4          -2.7330    -0.8650     1.1810 ca         1 SB0      -0.057500
      7 C3          -4.1360    -0.8090     1.2660 ca         1 SB0      -0.157500
      8 C7          -0.6450    -1.7000     0.0740 cc         1 SB0       0.352500
      9 N9           0.0100    -2.8700    -0.1700 nc         1 SB0      -0.674000
     10 C10          1.2980    -2.5550    -0.1570 cd         1 SB0       0.407400
     11 N11          1.4610    -1.1890     0.0620 na         1 SB0      -0.152500
     12 C19          2.7550    -0.4670    -0.0190 c6         1 SB0       0.077300
     13 C20          3.5140    -0.7920    -1.3360 c6         1 SB0      -0.086900
     14 C21          4.8580    -0.0220    -1.4040 c6         1 SB0      -0.093900
     15 C22          5.7460    -0.3300    -0.1710 c6         1 SB0       0.170300
     16 O25          6.9470     0.4420    -0.2370 oh         1 SB0      -0.654000
     17 C23          4.9870    -0.0180     1.1450 c6         1 SB0      -0.093900
     18 C24          3.6400    -0.7820     1.2160 c6         1 SB0      -0.086900
     19 C12          0.1980    -0.6270     0.2490 cd         1 SB0      -0.268500
     20 C13         -0.1440     0.8010     0.3700 ca         1 SB0       0.241500
     21 N14         -1.1070     1.2810    -0.4430 nb         1 SB0      -0.176000
     22 C15         -1.3760     2.6020    -0.3940 ca         1 SB0       0.359300
     23 O26         -2.3810     3.0460    -1.2290 os         1 SB0      -0.428300
     24 C27         -2.7790     4.4330    -1.2600 c3         1 SB0       0.162900
     25 N16         -0.7340     3.4940     0.3970 nb         1 SB0      -0.254000
     26 C17          0.2470     3.0250     1.1890 ca         1 SB0       0.147900
     27 C18          0.5880     1.6660     1.1980 ca         1 SB0      -0.268000
     28 H1          -4.9270    -2.8070    -1.3880 ha         1 SB0       0.129000
     29 H2          -2.4450    -2.9130    -1.5460 ha         1 SB0       0.121500
     30 H3          -2.1340    -0.3430     1.9240 ha         1 SB0       0.121500
     31 H4          -4.6130    -0.2370     2.0570 ha         1 SB0       0.129000
     32 H5           2.1340    -3.2240    -0.3230 h5         1 SB0       0.057100
     33 H6           2.5540     0.6110    -0.0300 h1         1 SB0       0.076700
     34 H7           3.7120    -1.8700    -1.4120 hc         1 SB0       0.055950
     35 H8           2.8900    -0.5250    -2.2000 hc         1 SB0       0.055950
     36 H9           5.3920    -0.2930    -2.3240 hc         1 SB0       0.056450
     37 H10          4.6620     1.0580    -1.4630 hc         1 SB0       0.056450
     38 H11          5.9940    -1.4020    -0.1840 h1         1 SB0       0.029700
     39 H12          7.5120     0.1490     0.5110 ho         1 SB0       0.445000
     40 H13          5.6090    -0.2880     2.0100 hc         1 SB0       0.056450
     41 H14          4.8000     1.0630     1.2210 hc         1 SB0       0.056450
     42 H15          3.1090    -0.5100     2.1380 hc         1 SB0       0.055950
     43 H16          3.8330    -1.8630     1.2760 hc         1 SB0       0.055950
     44 H17         -3.5920     4.5800    -1.9830 h1         1 SB0       0.051033
     45 H18         -3.1380     4.7600    -0.2760 h1         1 SB0       0.051033
     46 H19         -1.9400     5.0750    -1.5580 h1         1 SB0       0.051033
     47 H20          0.7650     3.7470     1.8190 h4         1 SB0       0.025100
     48 H21          1.3780     1.2980     1.8460 ha         1 SB0       0.138000
@<TRIPOS>BOND
     1     1     2 1   
     2     2     3 ar  
     3     2     7 ar  
     4     3     4 ar  
     5     3    28 1   
     6     4     5 ar  
     7     4    29 1   
     8     5     6 ar  
     9     5     8 1   
    10     6     7 ar  
    11     6    30 1   
    12     7    31 1   
    13     8     9 1   
    14     8    19 2   
    15     9    10 2   
    16    10    11 1   
    17    10    32 1   
    18    11    12 1   
    19    11    19 1   
    20    12    13 1   
    21    12    18 1   
    22    12    33 1   
    23    13    14 1   
    24    13    34 1   
    25    13    35 1   
    26    14    15 1   
    27    14    36 1   
    28    14    37 1   
    29    15    16 1   
    30    15    17 1   
    31    15    38 1   
    32    16    39 1   
    33    17    18 1   
    34    17    40 1   
    35    17    41 1   
    36    18    42 1   
    37    18    43 1   
    38    19    20 1   
    39    20    21 ar  
    40    20    27 ar  
    41    21    22 ar  
    42    22    23 1   
    43    22    25 ar  
    44    23    24 1   
    45    24    44 1   
    46    24    45 1   
    47    24    46 1   
    48    25    26 ar  
    49    26    27 ar  
    50    26    47 1   
    51    27    48 1   
@<TRIPOS>SUBSTRUCTURE
     1 SB0         1 TEMP              0 ****  ****    0 ROOT
