@<TRIPOS>MOLECULE
SB1
   70    71     1     0     0
SMALL
No Charge or Current Charge


@<TRIPOS>ATOM
      1 N1           0.2520    -0.5930    -1.2560 n          1 SB1      -0.378800
      2 C2           1.0880    -1.6410    -0.7820 c          1 SB1       0.509100
      3 O2           0.8840    -2.1510     0.3180 o          1 SB1      -0.582100
      4 C3           2.2560    -2.1870    -1.7240 c          1 SB1       0.505100
      5 O3           1.9700    -2.8570    -2.7160 o          1 SB1      -0.474100
      6 C4           3.7410    -1.8470    -1.3640 c3         1 SB1      -0.135000
      7 C5           3.9050    -0.3020    -1.2570 c3         1 SB1       0.167600
      8 O6           3.4890     0.1590     0.0420 os         1 SB1      -0.443100
      9 C7           3.4090     1.5120     0.2440 c          1 SB1       0.594100
     10 O7           3.4430     2.3440    -0.6520 o          1 SB1      -0.488000
     11 C8           3.3840     1.8820     1.7320 c3         1 SB1      -0.132400
     12 C9           1.9560     2.1170     2.2820 c3         1 SB1      -0.071400
     13 C10          1.2370     0.8180     2.7090 c3         1 SB1      -0.080400
     14 C11         -0.2100     1.0560     3.1940 c3         1 SB1      -0.077400
     15 C12         -0.8710    -0.2160     3.7750 c3         1 SB1      -0.073400
     16 C13         -2.3780    -0.0560     4.0880 c3         1 SB1      -0.073400
     17 C14         -3.2780    -0.1480     2.8340 c3         1 SB1      -0.082400
     18 C15         -4.7740     0.1090     3.1160 c3         1 SB1      -0.074400
     19 C16         -5.7670    -0.4320     2.0510 c3         1 SB1      -0.070400
     20 C17         -5.6090     0.0770     0.5890 c3         1 SB1      -0.083400
     21 C18         -4.6290    -0.7370    -0.2950 c3         1 SB1       0.166600
     22 O19         -3.3360    -0.1170    -0.2310 os         1 SB1      -0.445100
     23 C20         -2.2430    -0.8140    -0.6810 c          1 SB1       0.611100
     24 O20         -2.2950    -1.9890    -1.0250 o          1 SB1      -0.471000
     25 C21         -0.8950    -0.0740    -0.4370 c6         1 SB1       0.048700
     26 C22         -0.9940     1.4730    -0.5810 c6         1 SB1      -0.085400
     27 C23         -1.2600     1.9140    -2.0420 c6         1 SB1      -0.075400
     28 C24         -0.7590     0.8730    -3.0770 c6         1 SB1      -0.089400
     29 C25          0.4710     0.0730    -2.5780 c6         1 SB1       0.101000
     30 C26          4.6870    -2.3500    -2.4970 c3         1 SB1      -0.079600
     31 C27          4.1510    -2.5680    -0.0440 c3         1 SB1      -0.079600
     32 H51          4.9610    -0.0380    -1.4050 h1         1 SB1       0.051700
     33 H52          3.3380     0.1830    -2.0620 h1         1 SB1       0.051700
     34 H81          3.8360     1.0690     2.3140 hc         1 SB1       0.072700
     35 H82          3.9600     2.8050     1.8630 hc         1 SB1       0.072700
     36 H91          2.0260     2.7720     3.1600 hc         1 SB1       0.052200
     37 H92          1.3570     2.6580     1.5400 hc         1 SB1       0.052200
     38 H101         1.2280     0.1150     1.8690 hc         1 SB1       0.042700
     39 H102         1.8110     0.3420     3.5140 hc         1 SB1       0.042700
     40 H111        -0.2100     1.8360     3.9660 hc         1 SB1       0.039200
     41 H112        -0.8040     1.4430     2.3600 hc         1 SB1       0.039200
     42 H121        -0.7320    -1.0560     3.0820 hc         1 SB1       0.040200
     43 H122        -0.3470    -0.4870     4.7000 hc         1 SB1       0.040200
     44 H131        -2.6760    -0.8470     4.7870 hc         1 SB1       0.037700
     45 H132        -2.5480     0.8990     4.6010 hc         1 SB1       0.037700
     46 H141        -2.9370     0.5930     2.1040 hc         1 SB1       0.043700
     47 H142        -3.1540    -1.1410     2.3840 hc         1 SB1       0.043700
     48 H151        -5.0360    -0.3540     4.0760 hc         1 SB1       0.037200
     49 H152        -4.9320     1.1870     3.2430 hc         1 SB1       0.037200
     50 H161        -5.7400    -1.5290     2.0590 hc         1 SB1       0.041200
     51 H162        -6.7750    -0.1620     2.3890 hc         1 SB1       0.041200
     52 H171        -6.5950     0.0110     0.1140 hc         1 SB1       0.052200
     53 H172        -5.3420     1.1410     0.5800 hc         1 SB1       0.052200
     54 H181        -4.6000    -1.7770     0.0570 h1         1 SB1       0.054700
     55 H182        -4.9880    -0.7400    -1.3320 h1         1 SB1       0.054700
     56 H21         -0.6860    -0.2680     0.6220 h1         1 SB1       0.070700
     57 H221        -1.7590     1.8890     0.0880 hc         1 SB1       0.066200
     58 H222        -0.0430     1.9090    -0.2490 hc         1 SB1       0.066200
     59 H231        -2.3350     2.0830    -2.1930 hc         1 SB1       0.047700
     60 H232        -0.7710     2.8830    -2.2200 hc         1 SB1       0.047700
     61 H241        -1.5690     0.1670    -3.3050 hc         1 SB1       0.058200
     62 H242        -0.5210     1.3730    -4.0260 hc         1 SB1       0.058200
     63 H251         0.7290    -0.6750    -3.3390 h1         1 SB1       0.049200
     64 H252         1.3190     0.7650    -2.4870 h1         1 SB1       0.049200
     65 H261         4.6070    -3.4370    -2.6300 hc         1 SB1       0.050033
     66 H262         4.4450    -1.8730    -3.4560 hc         1 SB1       0.050033
     67 H263         5.7360    -2.1230    -2.2660 hc         1 SB1       0.050033
     68 H271         4.0720    -3.6560    -0.1540 hc         1 SB1       0.050033
     69 H272         5.1890    -2.3310     0.2230 hc         1 SB1       0.050033
     70 H273         3.5160    -2.2760     0.8010 hc         1 SB1       0.050033
@<TRIPOS>BOND
     1     1     2 1   
     2     1    25 1   
     3     1    29 1   
     4     2     3 2   
     5     2     4 1   
     6     4     5 2   
     7     4     6 1   
     8     6     7 1   
     9     6    30 1   
    10     6    31 1   
    11     7     8 1   
    12     7    32 1   
    13     7    33 1   
    14     8     9 1   
    15     9    10 2   
    16     9    11 1   
    17    11    12 1   
    18    11    34 1   
    19    11    35 1   
    20    12    13 1   
    21    12    36 1   
    22    12    37 1   
    23    13    14 1   
    24    13    38 1   
    25    13    39 1   
    26    14    15 1   
    27    14    40 1   
    28    14    41 1   
    29    15    16 1   
    30    15    42 1   
    31    15    43 1   
    32    16    17 1   
    33    16    44 1   
    34    16    45 1   
    35    17    18 1   
    36    17    46 1   
    37    17    47 1   
    38    18    19 1   
    39    18    48 1   
    40    18    49 1   
    41    19    20 1   
    42    19    50 1   
    43    19    51 1   
    44    20    21 1   
    45    20    52 1   
    46    20    53 1   
    47    21    22 1   
    48    21    54 1   
    49    21    55 1   
    50    22    23 1   
    51    23    24 2   
    52    23    25 1   
    53    25    26 1   
    54    25    56 1   
    55    26    27 1   
    56    26    57 1   
    57    26    58 1   
    58    27    28 1   
    59    27    59 1   
    60    27    60 1   
    61    28    29 1   
    62    28    61 1   
    63    28    62 1   
    64    29    63 1   
    65    29    64 1   
    66    30    65 1   
    67    30    66 1   
    68    30    67 1   
    69    31    68 1   
    70    31    69 1   
    71    31    70 1   
@<TRIPOS>SUBSTRUCTURE
     1 SB1         1 TEMP              0 ****  ****    0 ROOT
