@<TRIPOS>MOLECULE
SB1
   70    71     1     0     0
SMALL
bcc


@<TRIPOS>ATOM
      1 N1          -0.3200    -0.0910    -2.6970 n          1 SB1      -0.445800
      2 C2           0.0940    -0.9990    -1.8050 c          1 SB1       0.576100
      3 O2          -0.5700    -1.4210    -0.8710 o          1 SB1      -0.582100
      4 C3           1.4780    -1.6300    -1.9850 c          1 SB1       0.505100
      5 O3           1.6240    -2.4480    -2.8580 o          1 SB1      -0.474100
      6 C4           2.5410    -1.3180    -0.9370 c3         1 SB1      -0.135000
      7 C5           2.4800     0.1790    -0.6180 c3         1 SB1       0.144400
      8 O6           3.2440     0.4130     0.5590 os         1 SB1      -0.419900
      9 C7           3.1070     1.5970     1.1530 c          1 SB1       0.643100
     10 O7           2.5220     2.5200     0.6430 o          1 SB1      -0.537000
     11 C8           3.6850     1.6230     2.5400 c3         1 SB1      -0.132400
     12 C9           2.5430     1.5660     3.5660 c3         1 SB1      -0.071400
     13 C10          1.8120     0.2260     3.6080 c3         1 SB1      -0.080400
     14 C11          0.4740     0.3060     4.3310 c3         1 SB1      -0.077400
     15 C12         -0.1830    -1.0570     4.5440 c3         1 SB1      -0.073400
     16 C13         -1.6800    -0.9440     4.8330 c3         1 SB1      -0.073400
     17 C14         -2.5070    -0.7540     3.5610 c3         1 SB1      -0.082400
     18 C15         -3.8910    -0.1750     3.8260 c3         1 SB1      -0.074400
     19 C16         -4.8090    -0.1040     2.6060 c3         1 SB1      -0.070400
     20 C17         -4.1980     0.6220     1.3960 c3         1 SB1      -0.083400
     21 C18         -3.7000    -0.3710     0.3640 c3         1 SB1       0.143400
     22 O19         -2.8990     0.3260    -0.6010 os         1 SB1      -0.421900
     23 C20         -2.6090    -0.2830    -1.7370 c          1 SB1       0.660100
     24 O20         -3.1270    -1.2950    -2.1320 o          1 SB1      -0.520000
     25 C21         -1.6360     0.5460    -2.5730 c6         1 SB1       0.048700
     26 C22         -2.2470     0.7640    -3.9590 c6         1 SB1      -0.085400
     27 C23         -1.3060     1.5290    -4.8770 c6         1 SB1      -0.075400
     28 C24          0.0290     0.8080    -4.9670 c6         1 SB1      -0.089400
     29 C25          0.6120     0.6110    -3.5800 c6         1 SB1       0.101000
     30 C26          3.9200    -1.7040    -1.4660 c3         1 SB1      -0.079600
     31 C27          2.2120    -2.1650     0.3100 c3         1 SB1      -0.079600
     32 H51          2.8770     0.7680    -1.4500 h1         1 SB1       0.051700
     33 H52          1.4520     0.5060    -0.4380 h1         1 SB1       0.051700
     34 H81          4.3790     0.7970     2.6930 hc         1 SB1       0.072700
     35 H82          4.2380     2.5560     2.6620 hc         1 SB1       0.072700
     36 H91          2.9570     1.7820     4.5530 hc         1 SB1       0.052200
     37 H92          1.8360     2.3720     3.3530 hc         1 SB1       0.052200
     38 H101         1.6230    -0.1460     2.5970 hc         1 SB1       0.042700
     39 H102         2.4550    -0.5220     4.0830 hc         1 SB1       0.042700
     40 H111         0.5970     0.7980     5.3010 hc         1 SB1       0.039200
     41 H112        -0.1920     0.9510     3.7480 hc         1 SB1       0.039200
     42 H121        -0.0370    -1.6840     3.6560 hc         1 SB1       0.040200
     43 H122         0.3270    -1.5730     5.3620 hc         1 SB1       0.040200
     44 H131        -2.0380    -1.8330     5.3580 hc         1 SB1       0.037700
     45 H132        -1.8490    -0.1040     5.5160 hc         1 SB1       0.037700
     46 H141        -1.9640    -0.1000     2.8700 hc         1 SB1       0.043700
     47 H142        -2.5940    -1.7200     3.0520 hc         1 SB1       0.043700
     48 H151        -4.3870    -0.7650     4.6040 hc         1 SB1       0.037200
     49 H152        -3.7710     0.8320     4.2410 hc         1 SB1       0.037200
     50 H161        -5.1020    -1.1190     2.3150 hc         1 SB1       0.041200
     51 H162        -5.7350     0.3930     2.9000 hc         1 SB1       0.041200
     52 H171        -4.9390     1.2730     0.9280 hc         1 SB1       0.052200
     53 H172        -3.3790     1.2700     1.7200 hc         1 SB1       0.052200
     54 H181        -3.0770    -1.1440     0.8210 h1         1 SB1       0.054700
     55 H182        -4.5450    -0.8640    -0.1200 h1         1 SB1       0.054700
     56 H21         -1.4910     1.5180    -2.0890 h1         1 SB1       0.070700
     57 H221        -2.4830    -0.2070    -4.3990 hc         1 SB1       0.066200
     58 H222        -3.1890     1.3030    -3.8380 hc         1 SB1       0.066200
     59 H231        -1.7580     1.6320    -5.8640 hc         1 SB1       0.047700
     60 H232        -1.1510     2.5420    -4.4930 hc         1 SB1       0.047700
     61 H241        -0.0970    -0.1650    -5.4500 hc         1 SB1       0.058200
     62 H242         0.7440     1.3770    -5.5630 hc         1 SB1       0.058200
     63 H251         1.5460     0.0590    -3.6490 h1         1 SB1       0.049200
     64 H252         0.8460     1.5840    -3.1350 h1         1 SB1       0.049200
     65 H261         3.9790    -2.7690    -1.6870 hc         1 SB1       0.050033
     66 H262         4.1750    -1.1550    -2.3740 hc         1 SB1       0.050033
     67 H263         4.6800    -1.4840    -0.7170 hc         1 SB1       0.050033
     68 H271         2.1070    -3.2150     0.0380 hc         1 SB1       0.050033
     69 H272         3.0250    -2.0900     1.0290 hc         1 SB1       0.050033
     70 H273         1.2920    -1.8490     0.7990 hc         1 SB1       0.050033
@<TRIPOS>BOND
     1     1     2 1   
     2     1    25 1   
     3     1    29 1   
     4     2     3 2   
     5     2     4 1   
     6     4     5 2   
     7     4     6 1   
     8     6     7 1   
     9     6    30 1   
    10     6    31 1   
    11     7     8 1   
    12     7    32 1   
    13     7    33 1   
    14     8     9 1   
    15     9    10 2   
    16     9    11 1   
    17    11    12 1   
    18    11    34 1   
    19    11    35 1   
    20    12    13 1   
    21    12    36 1   
    22    12    37 1   
    23    13    14 1   
    24    13    38 1   
    25    13    39 1   
    26    14    15 1   
    27    14    40 1   
    28    14    41 1   
    29    15    16 1   
    30    15    42 1   
    31    15    43 1   
    32    16    17 1   
    33    16    44 1   
    34    16    45 1   
    35    17    18 1   
    36    17    46 1   
    37    17    47 1   
    38    18    19 1   
    39    18    48 1   
    40    18    49 1   
    41    19    20 1   
    42    19    50 1   
    43    19    51 1   
    44    20    21 1   
    45    20    52 1   
    46    20    53 1   
    47    21    22 1   
    48    21    54 1   
    49    21    55 1   
    50    22    23 1   
    51    23    24 2   
    52    23    25 1   
    53    25    26 1   
    54    25    56 1   
    55    26    27 1   
    56    26    57 1   
    57    26    58 1   
    58    27    28 1   
    59    27    59 1   
    60    27    60 1   
    61    28    29 1   
    62    28    61 1   
    63    28    62 1   
    64    29    63 1   
    65    29    64 1   
    66    30    65 1   
    67    30    66 1   
    68    30    67 1   
    69    31    68 1   
    70    31    69 1   
    71    31    70 1   
@<TRIPOS>SUBSTRUCTURE
     1 SB1         1 TEMP              0 ****  ****    0 ROOT
