@<TRIPOS>MOLECULE
SB2
   43    46     1     0     0
SMALL
bcc


@<TRIPOS>ATOM
      1 O2           6.9620     1.6770    -0.3840 o          1 SB2      -0.481200
      2 C1           6.9670    -0.1820     1.5200 c3         1 SB2      -0.060800
      3 S1           6.6330     0.2170    -0.2110 sx         1 SB2       0.210400
      4 CA1          2.6980     1.1260    -0.0870 ca         1 SB2      -0.120000
      5 CA2          4.0770     1.2350    -0.1160 ca         1 SB2      -0.066000
      6 CA3          4.8470     0.0830    -0.1270 ca         1 SB2      -0.062500
      7 CA4          4.2540    -1.1710    -0.1370 ca         1 SB2      -0.066000
      8 CA5          2.8750    -1.2730    -0.1000 ca         1 SB2      -0.120000
      9 CA6          2.0800    -0.1260    -0.0770 ca         1 SB2      -0.094500
     10 NB1         -4.4400    -4.0140    -0.1640 nb         1 SB2      -0.658000
     11 CB2         -4.5800    -2.8620    -0.8120 ca         1 SB2       0.403700
     12 CB3         -3.6330    -1.8530    -0.8030 ca         1 SB2      -0.240300
     13 CB4         -2.4610    -2.0320    -0.0680 ca         1 SB2       0.026000
     14 CB5         -2.3120    -3.2410     0.6110 ca         1 SB2      -0.240300
     15 CB6         -3.3200    -4.1880     0.5280 ca         1 SB2       0.403700
     16 NC1         -0.0930    -1.3360    -0.0330 na         1 SB2      -0.276900
     17 CC2          0.6230    -0.1930    -0.0480 cc         1 SB2       0.466000
     18 NC3         -0.1760     0.8500    -0.0360 nd         1 SB2      -0.662000
     19 CC4         -1.4470     0.3690    -0.0190 cd         1 SB2       0.397800
     20 CC5         -1.4210    -1.0130    -0.0320 cc         1 SB2      -0.163600
     21 CD1         -3.7090     1.0100     0.8240 ca         1 SB2      -0.081500
     22 CD2         -4.7790     1.8900     0.8760 ca         1 SB2      -0.175500
     23 CD3         -4.7130     3.0550     0.1370 ca         1 SB2       0.139900
     24 CD4         -3.6160     3.3690    -0.6410 ca         1 SB2      -0.175500
     25 CD5         -2.5560     2.4770    -0.6840 ca         1 SB2      -0.081500
     26 CD6         -2.5900     1.2830     0.0360 ca         1 SB2      -0.131500
     27 H11          6.4450     0.5240     2.1630 h1         1 SB2       0.079033
     28 H12          6.6450    -1.2010     1.7270 h1         1 SB2       0.079033
     29 H13          8.0430    -0.1060     1.6690 h1         1 SB2       0.079033
     30 HA1          2.0890     2.0200    -0.0750 ha         1 SB2       0.141500
     31 HA2          4.5450     2.2100    -0.1290 ha         1 SB2       0.149500
     32 HA4          4.8560    -2.0710    -0.1710 ha         1 SB2       0.149500
     33 HA5          2.4370    -2.2630    -0.0980 ha         1 SB2       0.141500
     34 HB2         -5.4930    -2.7340    -1.3820 h4         1 SB2       0.022600
     35 HB3         -3.8040    -0.9510    -1.3740 ha         1 SB2       0.146500
     36 HB5         -1.4360    -3.4480     1.2120 ha         1 SB2       0.146500
     37 HB6         -3.2140    -5.1300     1.0530 h4         1 SB2       0.022600
     38 HN1          0.2680    -2.2760    -0.0950 hn         1 SB2       0.307700
     39 HD1         -3.7440     0.1090     1.4220 ha         1 SB2       0.144500
     40 HD2         -5.6420     1.6770     1.4930 ha         1 SB2       0.151000
     41 HD4         -3.5880     4.2900    -1.2080 ha         1 SB2       0.151000
     42 HD5         -1.6930     2.7110    -1.2940 ha         1 SB2       0.144500
     43 FD3         -5.7440     3.9140     0.1830 f          1 SB2      -0.143900
@<TRIPOS>BOND
     1     1     3 2   
     2     2     3 1   
     3     2    27 1   
     4     2    28 1   
     5     2    29 1   
     6     3     6 1   
     7     4     5 ar  
     8     4     9 ar  
     9     4    30 1   
    10     5     6 ar  
    11     5    31 1   
    12     6     7 ar  
    13     7     8 ar  
    14     7    32 1   
    15     8     9 ar  
    16     8    33 1   
    17     9    17 1   
    18    10    11 ar  
    19    10    15 ar  
    20    11    12 ar  
    21    11    34 1   
    22    12    13 ar  
    23    12    35 1   
    24    13    14 ar  
    25    13    20 1   
    26    14    15 ar  
    27    14    36 1   
    28    15    37 1   
    29    16    17 1   
    30    16    20 1   
    31    16    38 1   
    32    17    18 2   
    33    18    19 1   
    34    19    20 2   
    35    19    26 1   
    36    21    22 ar  
    37    21    26 ar  
    38    21    39 1   
    39    22    23 ar  
    40    22    40 1   
    41    23    24 ar  
    42    23    43 1   
    43    24    25 ar  
    44    24    41 1   
    45    25    26 ar  
    46    25    42 1   
@<TRIPOS>SUBSTRUCTURE
     1 SB2         1 TEMP              0 ****  ****    0 ROOT
