@<TRIPOS>MOLECULE
SB2
   43    46     1     0     0
SMALL
No Charge or Current Charge


@<TRIPOS>ATOM
      1 O2           7.2020     1.1390    -1.0590 o          1 SB2      -0.508000
      2 C1           7.0290     0.4360     1.5760 c3         1 SB2      -0.060800
      3 S1           6.7950    -0.0460    -0.2000 sx         1 SB2       0.237200
      4 CA1          2.7990     0.9930    -0.1810 ca         1 SB2      -0.102000
      5 CA2          4.2030     1.0600    -0.2080 ca         1 SB2      -0.048000
      6 CA3          4.9640    -0.1200    -0.1740 ca         1 SB2      -0.062500
      7 CA4          4.3200    -1.3650    -0.1140 ca         1 SB2      -0.048000
      8 CA5          2.9150    -1.4330    -0.0870 ca         1 SB2      -0.102000
      9 CA6          2.1340    -0.2540    -0.1210 ca         1 SB2      -0.094500
     10 NB1         -4.6950    -3.8580    -0.2630 nb         1 SB2      -0.658000
     11 CB2         -4.6210    -2.7880    -1.0890 ca         1 SB2       0.338400
     12 CB3         -3.5650    -1.8640    -1.0480 ca         1 SB2      -0.157000
     13 CB4         -2.5350    -2.0340    -0.1060 ca         1 SB2       0.026000
     14 CB5         -2.6020    -3.1560     0.7360 ca         1 SB2      -0.157000
     15 CB6         -3.6950    -4.0320     0.6310 ca         1 SB2       0.338400
     16 NC1         -0.0680    -1.4730    -0.0350 na         1 SB2      -0.276500
     17 CC2          0.6610    -0.3110    -0.0920 cc         1 SB2       0.466000
     18 NC3         -0.1440     0.7430    -0.1060 nd         1 SB2      -0.662000
     19 CC4         -1.4400     0.2590    -0.0760 cd         1 SB2       0.332500
     20 CC5         -1.3970    -1.1220    -0.0450 cc         1 SB2      -0.149000
     21 CD1         -3.8270     0.7860     0.6160 ca         1 SB2      -0.063500
     22 CD2         -4.8860     1.7000     0.7570 ca         1 SB2      -0.157500
     23 CD3         -4.7210     3.0320     0.3560 ca         1 SB2       0.175000
     24 CD4         -3.4960     3.4610    -0.1680 ca         1 SB2      -0.157500
     25 CD5         -2.4350     2.5490    -0.3080 ca         1 SB2      -0.063500
     26 CD6         -2.5930     1.1890     0.0500 ca         1 SB2      -0.131500
     27 H11          6.4670     1.3570     1.7670 h1         1 SB2       0.079033
     28 H12          6.6560    -0.3780     2.2090 h1         1 SB2       0.079033
     29 H13          8.0990     0.5980     1.7540 h1         1 SB2       0.079033
     30 HA1          2.2300     1.9190    -0.2070 ha         1 SB2       0.123500
     31 HA2          4.6970     2.0280    -0.2540 ha         1 SB2       0.131500
     32 HA4          4.9070    -2.2810    -0.0870 ha         1 SB2       0.131500
     33 HA5          2.4470    -2.4130    -0.0390 ha         1 SB2       0.123500
     34 HB2         -5.4320    -2.6720    -1.8070 h4         1 SB2       0.022600
     35 HB3         -3.5520    -1.0310    -1.7450 ha         1 SB2       0.128500
     36 HB5         -1.8270    -3.3470     1.4730 ha         1 SB2       0.128500
     37 HB6         -3.7710    -4.9030     1.2810 h4         1 SB2       0.022600
     38 HN1          0.3150    -2.4080    -0.0280 hn         1 SB2       0.358000
     39 HD1         -3.9710    -0.2240     0.9860 ha         1 SB2       0.126500
     40 HD2         -5.8310     1.3790     1.1890 ha         1 SB2       0.133000
     41 HD4         -3.3670     4.5000    -0.4630 ha         1 SB2       0.133000
     42 HD5         -1.4910     2.9040    -0.7170 ha         1 SB2       0.126500
     43 FD3         -5.7390     3.9090     0.4960 f          1 SB2      -0.179000
@<TRIPOS>BOND
     1     1     3 2   
     2     2     3 1   
     3     2    27 1   
     4     2    28 1   
     5     2    29 1   
     6     3     6 1   
     7     4     5 ar  
     8     4     9 ar  
     9     4    30 1   
    10     5     6 ar  
    11     5    31 1   
    12     6     7 ar  
    13     7     8 ar  
    14     7    32 1   
    15     8     9 ar  
    16     8    33 1   
    17     9    17 1   
    18    10    11 ar  
    19    10    15 ar  
    20    11    12 ar  
    21    11    34 1   
    22    12    13 ar  
    23    12    35 1   
    24    13    14 ar  
    25    13    20 1   
    26    14    15 ar  
    27    14    36 1   
    28    15    37 1   
    29    16    17 1   
    30    16    20 1   
    31    16    38 1   
    32    17    18 2   
    33    18    19 1   
    34    19    20 2   
    35    19    26 1   
    36    21    22 ar  
    37    21    26 ar  
    38    21    39 1   
    39    22    23 ar  
    40    22    40 1   
    41    23    24 ar  
    42    23    43 1   
    43    24    25 ar  
    44    24    41 1   
    45    25    26 ar  
    46    25    42 1   
@<TRIPOS>SUBSTRUCTURE
     1 SB2         1 TEMP              0 ****  ****    0 ROOT
