@<TRIPOS>MOLECULE
SB3
   68    70     1     0     0
SMALL
bcc


@<TRIPOS>ATOM
      1 C1          -0.5710     1.1430    -0.0970 c          1 SB3       0.656100
      2 C2          -1.6000     0.3380     0.6840 c6         1 SB3       0.044700
      3 C3          -2.9730     0.8690     0.2440 c6         1 SB3      -0.085400
      4 C4          -4.1060     0.3340     1.1010 c6         1 SB3      -0.075400
      5 C5          -3.8360     0.6910     2.5530 c6         1 SB3      -0.087400
      6 C6          -2.5140     0.0950     2.9920 c6         1 SB3       0.102000
      7 N7          -1.4050     0.4940     2.1210 n          1 SB3      -0.433800
      8 O1          -0.3140     2.2980     0.1150 o          1 SB3      -0.510000
      9 O2          -0.1250     0.4470    -1.1320 os         1 SB3      -0.422900
     10 C8          -0.1390     0.4250     2.5740 c          1 SB3       0.568100
     11 O3           0.8400     0.2930     1.8580 o          1 SB3      -0.573100
     12 C9           0.1100     0.6590     4.0660 c          1 SB3       0.509100
     13 O4          -0.0410     1.7850     4.4740 o          1 SB3      -0.479100
     14 C10          0.6660    -0.4830     4.9020 c3         1 SB3      -0.128000
     15 C11          0.2750    -0.2420     6.3720 c3         1 SB3      -0.066400
     16 C12          0.7870    -1.2890     7.3520 c3         1 SB3      -0.089100
     17 C13          2.1970    -0.4490     4.7340 c3         1 SB3      -0.087600
     18 C14          0.1280    -1.8250     4.4000 c3         1 SB3      -0.087600
     19 C15          0.7390     1.0990    -2.0750 c3         1 SB3       0.205400
     20 C16          0.6610     0.2920    -3.3630 c3         1 SB3      -0.073400
     21 C17         -0.7400     0.2710    -3.9790 c3         1 SB3      -0.029100
     22 C18         -0.7550    -0.4820    -5.2800 ca         1 SB3      -0.080300
     23 C19         -0.9700    -1.8590    -5.3010 ca         1 SB3      -0.125000
     24 C20         -0.9460    -2.5660    -6.4950 ca         1 SB3      -0.127500
     25 C21         -0.7050    -1.9050    -7.6930 ca         1 SB3      -0.129000
     26 C22         -0.4870    -0.5330    -7.6850 ca         1 SB3      -0.127500
     27 C23         -0.5120     0.1700    -6.4870 ca         1 SB3      -0.125000
     28 C24          2.1460     1.1790    -1.5450 ca         1 SB3      -0.113300
     29 C25          2.7360     0.0920    -0.9070 ca         1 SB3      -0.096000
     30 C26          4.0520     0.1620    -0.4740 ca         1 SB3      -0.132000
     31 C27          4.7950     1.3180    -0.6790 ca         1 SB3      -0.119000
     32 C28          4.2130     2.4060    -1.3160 ca         1 SB3      -0.132000
     33 C29          2.8920     2.3360    -1.7410 ca         1 SB3      -0.096000
     34 H2          -1.5210    -0.7210     0.4150 h1         1 SB3       0.067700
     35 H31         -3.1150     0.6060    -0.8060 hc         1 SB3       0.062700
     36 H32         -2.9700     1.9600     0.3090 hc         1 SB3       0.062700
     37 H41         -4.1920    -0.7520     0.9900 hc         1 SB3       0.047200
     38 H42         -5.0510     0.7640     0.7640 hc         1 SB3       0.047200
     39 H51         -4.6180     0.3040     3.2080 hc         1 SB3       0.058700
     40 H52         -3.8160     1.7770     2.6740 hc         1 SB3       0.058700
     41 H61         -2.5990    -0.9970     2.9860 h1         1 SB3       0.044700
     42 H62         -2.2960     0.3950     4.0160 h1         1 SB3       0.044700
     43 H111        -0.8160    -0.1970     6.4420 hc         1 SB3       0.049200
     44 H112         0.6430     0.7380     6.6820 hc         1 SB3       0.049200
     45 H121         0.4480    -1.0460     8.3590 hc         1 SB3       0.034367
     46 H122         0.4250    -2.2910     7.1220 hc         1 SB3       0.034367
     47 H123         1.8770    -1.3270     7.3810 hc         1 SB3       0.034367
     48 H131         2.6170     0.4900     5.0980 hc         1 SB3       0.045533
     49 H132         2.6440    -1.2640     5.3040 hc         1 SB3       0.045533
     50 H133         2.4930    -0.5730     3.6930 hc         1 SB3       0.045533
     51 H141        -0.9480    -1.9210     4.5550 hc         1 SB3       0.045533
     52 H142         0.3380    -1.9850     3.3410 hc         1 SB3       0.045533
     53 H143         0.6070    -2.6440     4.9360 hc         1 SB3       0.045533
     54 H15          0.3660     2.1100    -2.2660 h1         1 SB3       0.063700
     55 H161         1.3610     0.7420    -4.0720 hc         1 SB3       0.059200
     56 H162         1.0140    -0.7290    -3.1850 hc         1 SB3       0.059200
     57 H171        -1.4450    -0.1890    -3.2840 hc         1 SB3       0.049200
     58 H172        -1.0750     1.2990    -4.1410 hc         1 SB3       0.049200
     59 H19         -1.1640    -2.3820    -4.3710 ha         1 SB3       0.128500
     60 H20         -1.1180    -3.6350    -6.4920 ha         1 SB3       0.129500
     61 H21         -0.6900    -2.4540    -8.6250 ha         1 SB3       0.130000
     62 H22         -0.3000    -0.0080    -8.6130 ha         1 SB3       0.129500
     63 H23         -0.3460     1.2410    -6.4910 ha         1 SB3       0.128500
     64 H25          2.1670    -0.8140    -0.7380 ha         1 SB3       0.133500
     65 H26          4.4980    -0.6880     0.0260 ha         1 SB3       0.128500
     66 H27          5.8220     1.3720    -0.3410 ha         1 SB3       0.127000
     67 H28          4.7830     3.3120    -1.4750 ha         1 SB3       0.128500
     68 H29          2.4380     3.1910    -2.2270 ha         1 SB3       0.133500
@<TRIPOS>BOND
     1     1     2 1   
     2     1     8 2   
     3     1     9 1   
     4     2     3 1   
     5     2     7 1   
     6     2    34 1   
     7     3     4 1   
     8     3    35 1   
     9     3    36 1   
    10     4     5 1   
    11     4    37 1   
    12     4    38 1   
    13     5     6 1   
    14     5    39 1   
    15     5    40 1   
    16     6     7 1   
    17     6    41 1   
    18     6    42 1   
    19     7    10 1   
    20     9    19 1   
    21    10    11 2   
    22    10    12 1   
    23    12    13 2   
    24    12    14 1   
    25    14    15 1   
    26    14    17 1   
    27    14    18 1   
    28    15    16 1   
    29    15    43 1   
    30    15    44 1   
    31    16    45 1   
    32    16    46 1   
    33    16    47 1   
    34    17    48 1   
    35    17    49 1   
    36    17    50 1   
    37    18    51 1   
    38    18    52 1   
    39    18    53 1   
    40    19    20 1   
    41    19    28 1   
    42    19    54 1   
    43    20    21 1   
    44    20    55 1   
    45    20    56 1   
    46    21    22 1   
    47    21    57 1   
    48    21    58 1   
    49    22    23 ar  
    50    22    27 ar  
    51    23    24 ar  
    52    23    59 1   
    53    24    25 ar  
    54    24    60 1   
    55    25    26 ar  
    56    25    61 1   
    57    26    27 ar  
    58    26    62 1   
    59    27    63 1   
    60    28    29 ar  
    61    28    33 ar  
    62    29    30 ar  
    63    29    64 1   
    64    30    31 ar  
    65    30    65 1   
    66    31    32 ar  
    67    31    66 1   
    68    32    33 ar  
    69    32    67 1   
    70    33    68 1   
@<TRIPOS>SUBSTRUCTURE
     1 SB3         1 TEMP              0 ****  ****    0 ROOT
