@<TRIPOS>MOLECULE
SB3
   68    70     1     0     0
SMALL
No Charge or Current Charge


@<TRIPOS>ATOM
      1 C1           1.2130     0.4700     0.0430 c          1 SB3       0.607100
      2 C2           0.8220    -0.6400     1.0660 c6         1 SB3       0.044700
      3 C3           0.1080    -1.8840     0.4530 c6         1 SB3      -0.085400
      4 C4          -1.3590    -1.6120     0.0230 c6         1 SB3      -0.075400
      5 C5          -1.9310    -0.3130     0.6400 c6         1 SB3      -0.087400
      6 C6          -1.4460    -0.0930     2.0930 c6         1 SB3       0.102000
      7 N7           0.0400    -0.1240     2.2430 n          1 SB3      -0.366800
      8 O1           1.7150     1.5310     0.3970 o          1 SB3      -0.461000
      9 O2           0.9020     0.1790    -1.2630 os         1 SB3      -0.446100
     10 C8           0.6800     0.2710     3.4470 c          1 SB3       0.501100
     11 O3           1.9070     0.2570     3.5350 o          1 SB3      -0.573100
     12 C9          -0.2200     0.7490     4.6780 c          1 SB3       0.509100
     13 O4          -0.7600     1.8560     4.6480 o          1 SB3      -0.479100
     14 C10         -0.3930    -0.2350     5.8930 c3         1 SB3      -0.128000
     15 C11         -1.4230     0.3720     6.9130 c3         1 SB3      -0.066400
     16 C12         -1.7500    -0.4720     8.1690 c3         1 SB3      -0.089100
     17 C13          0.9890    -0.4350     6.5800 c3         1 SB3      -0.087600
     18 C14         -0.9050    -1.6080     5.3680 c3         1 SB3      -0.087600
     19 C15          1.2630     1.1160    -2.2910 c3         1 SB3       0.228600
     20 C16          0.4620     0.7370    -3.5560 c3         1 SB3      -0.073400
     21 C17         -1.0600     0.9640    -3.4160 c3         1 SB3      -0.029100
     22 C18         -1.8150     0.5530    -4.6730 ca         1 SB3      -0.080300
     23 C19         -2.3080    -0.7590    -4.8060 ca         1 SB3      -0.107000
     24 C20         -3.0010    -1.1420    -5.9670 ca         1 SB3      -0.109500
     25 C21         -3.2040    -0.2140    -7.0030 ca         1 SB3      -0.111000
     26 C22         -2.7120     1.0960    -6.8770 ca         1 SB3      -0.109500
     27 C23         -2.0190     1.4780    -5.7150 ca         1 SB3      -0.107000
     28 C24          2.7740     1.0410    -2.5180 ca         1 SB3      -0.113300
     29 C25          3.4020    -0.1940    -2.7850 ca         1 SB3      -0.078000
     30 C26          4.7910    -0.2540    -2.9900 ca         1 SB3      -0.114000
     31 C27          5.5640     0.9170    -2.9300 ca         1 SB3      -0.101000
     32 C28          4.9460     2.1500    -2.6620 ca         1 SB3      -0.114000
     33 C29          3.5570     2.2120    -2.4570 ca         1 SB3      -0.078000
     34 H2           1.7930    -1.0080     1.4250 h1         1 SB3       0.067700
     35 H31          0.1060    -2.6800     1.2110 hc         1 SB3       0.062700
     36 H32          0.6860    -2.2880    -0.3910 hc         1 SB3       0.062700
     37 H41         -1.9830    -2.4680     0.3170 hc         1 SB3       0.047200
     38 H42         -1.4250    -1.5550    -1.0720 hc         1 SB3       0.047200
     39 H51         -3.0290    -0.3370     0.6110 hc         1 SB3       0.058700
     40 H52         -1.6330     0.5500     0.0290 hc         1 SB3       0.058700
     41 H61         -1.8810    -0.8740     2.7290 h1         1 SB3       0.044700
     42 H62         -1.8310     0.8750     2.4450 h1         1 SB3       0.044700
     43 H111        -2.3680     0.5690     6.3900 hc         1 SB3       0.049200
     44 H112        -1.0560     1.3490     7.2550 hc         1 SB3       0.049200
     45 H121        -2.4800     0.0580     8.7930 hc         1 SB3       0.034367
     46 H122        -2.1880    -1.4400     7.9010 hc         1 SB3       0.034367
     47 H123        -0.8590    -0.6460     8.7820 hc         1 SB3       0.034367
     48 H131         1.3870     0.5200     6.9440 hc         1 SB3       0.045533
     49 H132         0.9190    -1.1210     7.4320 hc         1 SB3       0.045533
     50 H133         1.7220    -0.8670     5.8890 hc         1 SB3       0.045533
     51 H141        -1.9140    -1.5160     4.9460 hc         1 SB3       0.045533
     52 H142        -0.2460    -2.0150     4.5910 hc         1 SB3       0.045533
     53 H143        -0.9460    -2.3520     6.1720 hc         1 SB3       0.045533
     54 H15          0.9820     2.1390    -2.0030 h1         1 SB3       0.063700
     55 H161         0.8320     1.3340    -4.3980 hc         1 SB3       0.059200
     56 H162         0.6500    -0.3140    -3.8060 hc         1 SB3       0.059200
     57 H171        -1.4380     0.4000    -2.5560 hc         1 SB3       0.049200
     58 H172        -1.2480     2.0220    -3.1920 hc         1 SB3       0.049200
     59 H19         -2.1530    -1.4840    -4.0090 ha         1 SB3       0.110500
     60 H20         -3.3800    -2.1570    -6.0650 ha         1 SB3       0.111500
     61 H21         -3.7390    -0.5110    -7.9020 ha         1 SB3       0.112000
     62 H22         -2.8670     1.8140    -7.6790 ha         1 SB3       0.111500
     63 H23         -1.6390     2.4940    -5.6260 ha         1 SB3       0.110500
     64 H25          2.8140    -1.1080    -2.8300 ha         1 SB3       0.115500
     65 H26          5.2690    -1.2100    -3.1950 ha         1 SB3       0.110500
     66 H27          6.6390     0.8700    -3.0880 ha         1 SB3       0.109000
     67 H28          5.5430     3.0580    -2.6140 ha         1 SB3       0.110500
     68 H29          3.0900     3.1730    -2.2480 ha         1 SB3       0.115500
@<TRIPOS>BOND
     1     1     2 1   
     2     1     8 2   
     3     1     9 1   
     4     2     3 1   
     5     2     7 1   
     6     2    34 1   
     7     3     4 1   
     8     3    35 1   
     9     3    36 1   
    10     4     5 1   
    11     4    37 1   
    12     4    38 1   
    13     5     6 1   
    14     5    39 1   
    15     5    40 1   
    16     6     7 1   
    17     6    41 1   
    18     6    42 1   
    19     7    10 1   
    20     9    19 1   
    21    10    11 2   
    22    10    12 1   
    23    12    13 2   
    24    12    14 1   
    25    14    15 1   
    26    14    17 1   
    27    14    18 1   
    28    15    16 1   
    29    15    43 1   
    30    15    44 1   
    31    16    45 1   
    32    16    46 1   
    33    16    47 1   
    34    17    48 1   
    35    17    49 1   
    36    17    50 1   
    37    18    51 1   
    38    18    52 1   
    39    18    53 1   
    40    19    20 1   
    41    19    28 1   
    42    19    54 1   
    43    20    21 1   
    44    20    55 1   
    45    20    56 1   
    46    21    22 1   
    47    21    57 1   
    48    21    58 1   
    49    22    23 ar  
    50    22    27 ar  
    51    23    24 ar  
    52    23    59 1   
    53    24    25 ar  
    54    24    60 1   
    55    25    26 ar  
    56    25    61 1   
    57    26    27 ar  
    58    26    62 1   
    59    27    63 1   
    60    28    29 ar  
    61    28    33 ar  
    62    29    30 ar  
    63    29    64 1   
    64    30    31 ar  
    65    30    65 1   
    66    31    32 ar  
    67    31    66 1   
    68    32    33 ar  
    69    32    67 1   
    70    33    68 1   
@<TRIPOS>SUBSTRUCTURE
     1 SB3         1 TEMP              0 ****  ****    0 ROOT
