@<TRIPOS>MOLECULE
SB4
   44    47     1     0     0
SMALL
No Charge or Current Charge


@<TRIPOS>ATOM
      1 CA1         -0.8380    -1.1730    -3.7640 c6         1 SB4      -0.088900
      2 CA2         -0.2160    -1.1510    -5.1800 c6         1 SB4       0.161300
      3 NA3         -0.5350     0.1160    -5.8820 n7         1 SB4      -0.867400
      4 CA4         -0.0810     1.3190    -5.1430 c6         1 SB4       0.161300
      5 CA5         -0.7030     1.3670    -3.7280 c6         1 SB4      -0.088900
      6 CA6         -0.3860     0.0650    -2.9500 c6         1 SB4       0.078300
      7 CB1         -2.2420     0.4580     2.8950 ca         1 SB4      -0.061500
      8 CB2         -2.1900     0.3070     4.2920 ca         1 SB4      -0.159500
      9 CB3         -1.1160    -0.3700     4.8830 ca         1 SB4       0.168000
     10 CB4         -0.1010    -0.9100     4.0830 ca         1 SB4      -0.159500
     11 CB5         -0.1510    -0.7590     2.6860 ca         1 SB4      -0.061500
     12 CB6         -1.2070    -0.0440     2.0700 ca         1 SB4      -0.111500
     13 CC1          1.8560    -1.1530    -0.7520 ca         1 SB4      -0.291000
     14 CC2          1.0830    -0.1410    -0.1570 ca         1 SB4       0.248500
     15 NC3          1.6570     0.7930     0.6300 nb         1 SB4      -0.234000
     16 CC4          2.9820     0.6920     0.8060 ca         1 SB4       0.385900
     17 NC5          3.8080    -0.2300     0.2900 nb         1 SB4      -0.247000
     18 CC6          3.2370    -1.1610    -0.4980 ca         1 SB4       0.152900
     19 NC7          3.5570     1.6300     1.6000 nv         1 SB4      -1.066900
     20 ND1         -1.0020     0.0690    -1.6010 na         1 SB4      -0.149500
     21 CD2         -2.3360     0.2740    -1.3160 cc         1 SB4       0.407400
     22 ND3         -2.5450     0.2940    -0.0070 nd         1 SB4      -0.676000
     23 CD4         -1.3120     0.0990     0.5920 cd         1 SB4       0.339500
     24 CD5         -0.3560    -0.0730    -0.3890 cc         1 SB4      -0.263500
     25 H11         -0.5430    -2.0950    -3.2460 hc         1 SB4       0.060950
     26 H12         -1.9330    -1.1950    -3.8490 hc         1 SB4       0.060950
     27 H21          0.8770    -1.2620    -5.1020 h1         1 SB4       0.035700
     28 H22         -0.5960    -2.0020    -5.7640 h1         1 SB4       0.035700
     29 HN3         -0.0840     0.1050    -6.8070 hn         1 SB4       0.420000
     30 H41          1.0170     1.3080    -5.0620 h1         1 SB4       0.035700
     31 H42         -0.3640     2.2230    -5.7020 h1         1 SB4       0.035700
     32 H51         -1.7880     1.5090    -3.8180 hc         1 SB4       0.060950
     33 H52         -0.3140     2.2370    -3.1820 hc         1 SB4       0.060950
     34 H6           0.7050     0.0120    -2.8330 h1         1 SB4       0.072700
     35 HB1         -3.0860     0.9860     2.4570 ha         1 SB4       0.123500
     36 HB2         -2.9840     0.7120     4.9150 ha         1 SB4       0.129000
     37 HB4          0.7170    -1.4570     4.5440 ha         1 SB4       0.129000
     38 HB5          0.6250    -1.2350     2.0940 ha         1 SB4       0.123500
     39 HC6          3.8910    -1.9190    -0.9250 h4         1 SB4       0.021100
     40 HN71         4.5030     1.4650     1.9370 hn         1 SB4       0.504000
     41 HN72         2.9580     2.2070     2.1870 hn         1 SB4       0.504000
     42 H2          -3.0840     0.4060    -2.0890 h5         1 SB4       0.060100
     43 FB7         -1.0680    -0.5190     6.2240 f          1 SB4      -0.184000
     44 HC1          1.4010    -1.9110    -1.3830 ha         1 SB4       0.136000
@<TRIPOS>BOND
     1     1     2 1   
     2     1     6 1   
     3     1    25 1   
     4     1    26 1   
     5     2     3 1   
     6     2    27 1   
     7     2    28 1   
     8     3     4 1   
     9     3    29 1   
    10     4     5 1   
    11     4    30 1   
    12     4    31 1   
    13     5     6 1   
    14     5    32 1   
    15     5    33 1   
    16     6    20 1   
    17     6    34 1   
    18     7     8 ar  
    19     7    12 ar  
    20     7    35 1   
    21     8     9 ar  
    22     8    36 1   
    23     9    10 ar  
    24     9    43 1   
    25    10    11 ar  
    26    10    37 1   
    27    11    12 ar  
    28    11    38 1   
    29    12    23 1   
    30    13    14 ar  
    31    13    18 ar  
    32    13    44 1   
    33    14    15 ar  
    34    14    24 1   
    35    15    16 ar  
    36    16    17 ar  
    37    16    19 1   
    38    17    18 ar  
    39    18    39 1   
    40    19    40 1   
    41    19    41 1   
    42    20    21 1   
    43    20    24 1   
    44    21    22 2   
    45    21    42 1   
    46    22    23 1   
    47    23    24 2   
@<TRIPOS>SUBSTRUCTURE
     1 SB4         1 TEMP              0 ****  ****    0 ROOT
