@<TRIPOS>MOLECULE
SB4
   44    47     1     0     0
SMALL
abcg2


@<TRIPOS>ATOM
      1 CA1         -0.6950    -1.1690    -3.7040 c6         1 SB4      -0.088900
      2 CA2         -0.0720    -1.0740    -5.0900 c6         1 SB4       0.161300
      3 NA3         -0.5610     0.1110    -5.7680 n7         1 SB4      -0.867400
      4 CA4         -0.1890     1.3250    -5.0680 c6         1 SB4       0.161300
      5 CA5         -0.8240     1.3400    -3.6840 c6         1 SB4      -0.088900
      6 CA6         -0.3880     0.0980    -2.9130 c6         1 SB4       0.078300
      7 CB1         -2.1820     0.5710     2.8380 ca         1 SB4      -0.061500
      8 CB2         -2.1380     0.4890     4.2220 ca         1 SB4      -0.159500
      9 CB3         -1.1410    -0.2670     4.8070 ca         1 SB4       0.168000
     10 CB4         -0.2010    -0.9450     4.0550 ca         1 SB4      -0.159500
     11 CB5         -0.2630    -0.8540     2.6740 ca         1 SB4      -0.061500
     12 CB6         -1.2430    -0.0870     2.0420 ca         1 SB4      -0.111500
     13 CC1          1.8530    -1.1330    -0.8710 ca         1 SB4      -0.291000
     14 CC2          1.1150    -0.1530    -0.2120 ca         1 SB4       0.248500
     15 NC3          1.6830     0.7110     0.6190 nb         1 SB4      -0.234000
     16 CC4          3.0010     0.5990     0.8090 ca         1 SB4       0.385900
     17 NC5          3.8010    -0.2980     0.2150 nb         1 SB4      -0.247000
     18 CC6          3.2140    -1.1430    -0.6120 ca         1 SB4       0.152900
     19 NC7          3.5750     1.4760     1.6490 nv         1 SB4      -1.066900
     20 ND1         -0.9810     0.0520    -1.5790 na         1 SB4      -0.149500
     21 CD2         -2.2960     0.1670    -1.3120 cc         1 SB4       0.407400
     22 ND3         -2.5470     0.1420    -0.0300 nd         1 SB4      -0.676000
     23 CD4         -1.3360     0.0120     0.5840 cd         1 SB4       0.339500
     24 CD5         -0.3390    -0.0420    -0.3670 cc         1 SB4      -0.263500
     25 H11         -0.3090    -2.0470    -3.1800 hc         1 SB4       0.060950
     26 H12         -1.7780    -1.2950    -3.7990 hc         1 SB4       0.060950
     27 H21          1.0260    -1.0840    -4.9870 h1         1 SB4       0.035700
     28 H22         -0.3420    -1.9570    -5.6730 h1         1 SB4       0.035700
     29 HN3         -0.2030     0.1370    -6.7130 hn         1 SB4       0.420000
     30 H41          0.9030     1.4370    -4.9600 h1         1 SB4       0.035700
     31 H42         -0.5400     2.1870    -5.6380 h1         1 SB4       0.035700
     32 H51         -1.9110     1.3650    -3.7910 hc         1 SB4       0.060950
     33 H52         -0.5220     2.2400    -3.1450 hc         1 SB4       0.060950
     34 H6           0.6930     0.1640    -2.7680 h1         1 SB4       0.072700
     35 HB1         -2.9590     1.1610     2.3700 ha         1 SB4       0.123500
     36 HB2         -2.8670     1.0070     4.8310 ha         1 SB4       0.129000
     37 HB4          0.5600    -1.5450     4.5370 ha         1 SB4       0.129000
     38 HB5          0.4570    -1.4100     2.0880 ha         1 SB4       0.123500
     39 HC6          3.8540    -1.8780    -1.0880 h4         1 SB4       0.021100
     40 HN71         4.5340     1.3520     1.9210 hn         1 SB4       0.504000
     41 HN72         2.9970     2.0780     2.2090 hn         1 SB4       0.504000
     42 H2          -3.0380     0.2710    -2.0890 h5         1 SB4       0.060100
     43 FB7         -1.0870    -0.3520     6.1470 f          1 SB4      -0.184000
     44 HC1          1.3970    -1.8650    -1.5210 ha         1 SB4       0.136000
@<TRIPOS>BOND
     1     1     2 1   
     2     1     6 1   
     3     1    25 1   
     4     1    26 1   
     5     2     3 1   
     6     2    27 1   
     7     2    28 1   
     8     3     4 1   
     9     3    29 1   
    10     4     5 1   
    11     4    30 1   
    12     4    31 1   
    13     5     6 1   
    14     5    32 1   
    15     5    33 1   
    16     6    20 1   
    17     6    34 1   
    18     7     8 ar  
    19     7    12 ar  
    20     7    35 1   
    21     8     9 ar  
    22     8    36 1   
    23     9    10 ar  
    24     9    43 1   
    25    10    11 ar  
    26    10    37 1   
    27    11    12 ar  
    28    11    38 1   
    29    12    23 1   
    30    13    14 ar  
    31    13    18 ar  
    32    13    44 1   
    33    14    15 ar  
    34    14    24 1   
    35    15    16 ar  
    36    16    17 ar  
    37    16    19 1   
    38    17    18 ar  
    39    18    39 1   
    40    19    40 1   
    41    19    41 1   
    42    20    21 1   
    43    20    24 1   
    44    21    22 2   
    45    21    42 1   
    46    22    23 1   
    47    23    24 2   
@<TRIPOS>SUBSTRUCTURE
     1 SB4         1 TEMP              0 ****  ****    0 ROOT
