@<TRIPOS>MOLECULE
SB5
   39    42     1     0     0
SMALL
No Charge or Current Charge


@<TRIPOS>ATOM
      1 FA1         -0.6710     0.0510     5.7950 f          1 SB5      -0.184000
      2 CA1          0.1500    -0.5960     3.6550 ca         1 SB5      -0.159500
      3 CA2         -0.8450    -0.0250     4.4580 ca         1 SB5       0.169000
      4 CA3         -2.0290     0.4480     3.8790 ca         1 SB5      -0.159500
      5 CA4         -2.2120     0.3650     2.4870 ca         1 SB5      -0.061500
      6 CA5         -1.2020    -0.1700     1.6510 ca         1 SB5      -0.112500
      7 CA6         -0.0300    -0.6790     2.2630 ca         1 SB5      -0.061500
      8 CB1          3.1230    -1.2010    -1.1770 ca         1 SB5       0.151900
      9 NB2          3.6370    -0.1050    -0.5890 nb         1 SB5      -0.245000
     10 CB3          2.7470     0.7810    -0.1170 ca         1 SB5       0.381900
     11 NB4          1.4100     0.7000    -0.1620 nb         1 SB5      -0.233000
     12 CB5          0.8930    -0.3990    -0.7500 ca         1 SB5       0.248500
     13 CB6          1.7360    -1.3910    -1.2820 ca         1 SB5      -0.286000
     14 NC1         -1.3100    -0.6390    -1.9960 na         1 SB5      -0.150500
     15 CC2         -0.5580    -0.5270    -0.8430 cc         1 SB5      -0.260500
     16 CC3         -1.4430    -0.2800     0.1870 cd         1 SB5       0.340500
     17 NC4         -2.7330    -0.2890    -0.3140 nd         1 SB5      -0.673000
     18 CC5         -2.6270    -0.4960    -1.6200 cc         1 SB5       0.406400
     19 CE1         -0.1160     0.4260    -3.9630 cx         1 SB5      -0.156700
     20 CE2         -0.1400     0.7010    -5.4490 cx         1 SB5      -0.120400
     21 CE3         -0.9070     1.5960    -4.5020 cx         1 SB5      -0.120400
     22 HCA1         1.0560    -0.9860     4.1120 ha         1 SB5       0.129000
     23 HCA3        -2.8050     0.8770     4.5070 ha         1 SB5       0.129000
     24 HCA4        -3.1400     0.7380     2.0590 ha         1 SB5       0.123500
     25 HCA6         0.7380    -1.1720     1.6760 ha         1 SB5       0.123500
     26 HCB1         3.8300    -1.9330    -1.5650 h4         1 SB5       0.022100
     27 HCB6         1.3320    -2.2840    -1.7500 ha         1 SB5       0.136000
     28 HN71         4.2500     1.8870     0.7290 hn         1 SB5       0.500500
     29 HN72         2.6490     2.4720     1.0400 hn         1 SB5       0.500500
     30 HCC5        -3.4430    -0.5420    -2.3320 h5         1 SB5       0.055100
     31 HCD1        -0.1390    -1.6490    -3.4110 h1         1 SB5       0.063200
     32 HCD2        -1.6790    -1.0470    -4.0130 h1         1 SB5       0.063200
     33 HCE1         0.8070     0.6640    -3.4390 hc         1 SB5       0.096700
     34 HC21         0.7620     1.1010    -5.9050 hc         1 SB5       0.075700
     35 HC22        -0.7120     0.0310    -6.0870 hc         1 SB5       0.075700
     36 HC31        -1.9930     1.5230    -4.5040 hc         1 SB5       0.075700
     37 HC32        -0.5200     2.5960    -4.3210 hc         1 SB5       0.075700
     38 CD1         -0.8220    -0.7910    -3.3760 c3         1 SB5       0.102600
     39 NB7          3.2640     1.8860     0.4780 nv         1 SB5      -1.061900
@<TRIPOS>BOND
     1     1     3 1   
     2     2     3 ar  
     3     2     7 ar  
     4     2    22 1   
     5     3     4 ar  
     6     4     5 ar  
     7     4    23 1   
     8     5     6 ar  
     9     5    24 1   
    10     6     7 ar  
    11     6    16 1   
    12     7    25 1   
    13     8     9 ar  
    14     8    13 ar  
    15     8    26 1   
    16     9    10 ar  
    17    10    11 ar  
    18    10    39 1   
    19    11    12 ar  
    20    12    13 ar  
    21    12    15 1   
    22    13    27 1   
    23    14    15 1   
    24    14    18 1   
    25    14    38 1   
    26    15    16 2   
    27    16    17 1   
    28    17    18 2   
    29    18    30 1   
    30    19    20 1   
    31    19    21 1   
    32    19    33 1   
    33    19    38 1   
    34    20    21 1   
    35    20    34 1   
    36    20    35 1   
    37    21    36 1   
    38    21    37 1   
    39    28    39 1   
    40    29    39 1   
    41    31    38 1   
    42    32    38 1   
@<TRIPOS>SUBSTRUCTURE
     1 SB5         1 TEMP              0 ****  ****    0 ROOT
