@<TRIPOS>MOLECULE
SB5
   39    42     1     0     0
SMALL
bcc


@<TRIPOS>ATOM
      1 FA1         -0.8190     0.3170     5.6500 f          1 SB5      -0.148900
      2 CA1          0.0210    -0.5550     3.6390 ca         1 SB5      -0.177500
      3 CA2         -0.9530     0.1440     4.3240 ca         1 SB5       0.133900
      4 CA3         -2.0640     0.6620     3.6880 ca         1 SB5      -0.177500
      5 CA4         -2.1920     0.4770     2.3200 ca         1 SB5      -0.079500
      6 CA5         -1.2230    -0.2110     1.5880 ca         1 SB5      -0.112500
      7 CA6         -0.1230    -0.7320     2.2720 ca         1 SB5      -0.079500
      8 CB1          3.1750    -1.3060    -1.1830 ca         1 SB5       0.480200
      9 NB2          3.7150    -0.2490    -0.6040 nb         1 SB5      -0.771000
     10 CB3          2.8590     0.6650    -0.1280 ca         1 SB5       0.907900
     11 NB4          1.5270     0.5990    -0.2100 nb         1 SB5      -0.759000
     12 CB5          1.0080    -0.4730    -0.7930 ca         1 SB5       0.576800
     13 CB6          1.8080    -1.4890    -1.3080 ca         1 SB5      -0.434600
     14 NC1         -1.1650    -0.7510    -2.0020 na         1 SB5      -0.171900
     15 CC2         -0.4550    -0.5410    -0.8450 cc         1 SB5      -0.275100
     16 CC3         -1.4030    -0.3980     0.1470 cd         1 SB5       0.405800
     17 NC4         -2.6510    -0.4990    -0.3940 nd         1 SB5      -0.673000
     18 CC5         -2.4700    -0.6970    -1.6730 cc         1 SB5       0.406400
     19 CE1         -0.1720     0.5590    -3.8280 cx         1 SB5      -0.156700
     20 CE2         -0.3250     0.9230    -5.2720 cx         1 SB5      -0.120400
     21 CE3         -1.1680     1.5990    -4.2340 cx         1 SB5      -0.120400
     22 HCA1         0.8740    -0.9670     4.1620 ha         1 SB5       0.147000
     23 HCA3        -2.8180     1.2020     4.2470 ha         1 SB5       0.147000
     24 HCA4        -3.0580     0.8810     1.8120 ha         1 SB5       0.141500
     25 HCA6         0.6270    -1.3060     1.7450 ha         1 SB5       0.141500
     26 HCB1         3.8630    -2.0560    -1.5590 h4         1 SB5       0.022100
     27 HCB6         1.3980    -2.3860    -1.7470 ha         1 SB5       0.154000
     28 HN71         4.3650     1.7710     0.6750 hn         1 SB5       0.445300
     29 HN72         2.7850     2.3810     0.9630 hn         1 SB5       0.445300
     30 HCC5        -3.2480    -0.8100    -2.4130 h5         1 SB5       0.055100
     31 HCD1         0.1270    -1.5350    -3.4440 h1         1 SB5       0.063200
     32 HCD2        -1.4820    -1.1290    -3.9950 h1         1 SB5       0.063200
     33 HCE1         0.7270     0.9150    -3.3370 hc         1 SB5       0.096700
     34 HC21         0.4700     1.4890    -5.7390 hc         1 SB5       0.075700
     35 HC22        -0.8040     0.2060    -5.9280 hc         1 SB5       0.075700
     36 HC31        -2.2200     1.3390    -4.1870 hc         1 SB5       0.075700
     37 HC32        -0.9550     2.6310    -3.9880 hc         1 SB5       0.075700
     38 CD1         -0.6600    -0.7860    -3.3660 c3         1 SB5       0.073300
     39 NB7          3.3860     1.7580     0.4530 nv         1 SB5      -0.951500
@<TRIPOS>BOND
     1     1     3 1   
     2     2     3 ar  
     3     2     7 ar  
     4     2    22 1   
     5     3     4 ar  
     6     4     5 ar  
     7     4    23 1   
     8     5     6 ar  
     9     5    24 1   
    10     6     7 ar  
    11     6    16 1   
    12     7    25 1   
    13     8     9 ar  
    14     8    13 ar  
    15     8    26 1   
    16     9    10 ar  
    17    10    11 ar  
    18    10    39 1   
    19    11    12 ar  
    20    12    13 ar  
    21    12    15 1   
    22    13    27 1   
    23    14    15 1   
    24    14    18 1   
    25    14    38 1   
    26    15    16 2   
    27    16    17 1   
    28    17    18 2   
    29    18    30 1   
    30    19    20 1   
    31    19    21 1   
    32    19    33 1   
    33    19    38 1   
    34    20    21 1   
    35    20    34 1   
    36    20    35 1   
    37    21    36 1   
    38    21    37 1   
    39    28    39 1   
    40    29    39 1   
    41    31    38 1   
    42    32    38 1   
@<TRIPOS>SUBSTRUCTURE
     1 SB5         1 TEMP              0 ****  ****    0 ROOT
