@<TRIPOS>MOLECULE
SB6
   38    41     1     0     0
SMALL
abcg2


@<TRIPOS>ATOM
      1 FA1          0.4890     0.6220    -5.6830 f          1 SB6      -0.181000
      2 CA1          1.8270     0.7680    -3.7570 ca         1 SB6      -0.157500
      3 CA2          0.6520     0.3800    -4.3710 ca         1 SB6       0.171000
      4 CA3         -0.3590    -0.2560    -3.6780 ca         1 SB6      -0.157500
      5 CA4         -0.1820    -0.5090    -2.3260 ca         1 SB6      -0.066000
      6 CA5          0.9850    -0.1230    -1.6650 ca         1 SB6      -0.124500
      7 CA6          1.9860     0.5110    -2.4050 ca         1 SB6      -0.066000
      8 CB1         -3.4270    -0.8840     1.2550 ca         1 SB6       0.332900
      9 NB2         -3.9220     0.2610     0.8040 nb         1 SB6      -0.660000
     10 CB3         -3.0580     1.1590     0.3430 ca         1 SB6       0.332900
     11 CB4         -1.6880     0.9640     0.3200 ca         1 SB6      -0.152500
     12 CB5         -1.1680    -0.2390     0.7940 ca         1 SB6       0.028000
     13 CB6         -2.0740    -1.1850     1.2680 ca         1 SB6      -0.152500
     14 NC1          1.0000    -0.8100     1.8970 na         1 SB6      -0.151500
     15 CC2          0.2760    -0.4800     0.7790 cc         1 SB6      -0.154000
     16 CC3          1.1980    -0.3970    -0.2420 cd         1 SB6       0.319500
     17 NC4          2.4480    -0.6500     0.2440 nd         1 SB6      -0.668000
     18 CC5          2.2920    -0.8820     1.5200 cc         1 SB6       0.402400
     19 CE1          0.2220     0.5090     3.8180 cx         1 SB6      -0.157700
     20 CE2          0.4630     0.7830     5.2700 cx         1 SB6      -0.120900
     21 CE3          1.3410     1.4120     4.2300 cx         1 SB6      -0.120900
     22 HCA1         2.6060     1.2640    -4.3220 ha         1 SB6       0.131000
     23 HCA3        -1.2650    -0.5640    -4.1830 ha         1 SB6       0.131000
     24 HCA4        -0.9630    -1.0340    -1.7930 ha         1 SB6       0.126000
     25 HCA6         2.9010     0.8140    -1.9150 ha         1 SB6       0.126000
     26 HCB1        -4.1430    -1.6130     1.6210 h4         1 SB6       0.022100
     27 HCB3        -3.4740     2.0910    -0.0250 h4         1 SB6       0.022100
     28 HCB4        -1.0360     1.7400    -0.0570 ha         1 SB6       0.130500
     29 HCB6        -1.7440    -2.1530     1.6210 ha         1 SB6       0.130500
     30 HCC5         3.0790    -1.1140     2.2220 h5         1 SB6       0.056100
     31 HCD1        -0.3280    -1.5140     3.3460 h1         1 SB6       0.063700
     32 HCD2         1.3330    -1.3240     3.8600 h1         1 SB6       0.063700
     33 HCE1        -0.6480     0.9880     3.3810 hc         1 SB6       0.094700
     34 HE21        -0.2480     1.4070     5.7950 hc         1 SB6       0.075950
     35 HE22         0.8850    -0.0130     5.8730 hc         1 SB6       0.075950
     36 HE31         2.3550     1.0420     4.1310 hc         1 SB6       0.075950
     37 HE32         1.2360     2.4710     4.0370 hc         1 SB6       0.075950
     38 CD1          0.5380    -0.8570     3.2760 c3         1 SB6       0.102600
@<TRIPOS>BOND
     1     1     3 1   
     2     2     3 ar  
     3     2     7 ar  
     4     2    22 1   
     5     3     4 ar  
     6     4     5 ar  
     7     4    23 1   
     8     5     6 ar  
     9     5    24 1   
    10     6     7 ar  
    11     6    16 1   
    12     7    25 1   
    13     8     9 ar  
    14     8    13 ar  
    15     8    26 1   
    16     9    10 ar  
    17    10    11 ar  
    18    10    27 1   
    19    11    12 ar  
    20    11    28 1   
    21    12    13 ar  
    22    12    15 1   
    23    13    29 1   
    24    14    15 1   
    25    14    18 1   
    26    14    38 1   
    27    15    16 2   
    28    16    17 1   
    29    17    18 2   
    30    18    30 1   
    31    19    20 1   
    32    19    21 1   
    33    19    33 1   
    34    19    38 1   
    35    20    21 1   
    36    20    34 1   
    37    20    35 1   
    38    21    36 1   
    39    21    37 1   
    40    31    38 1   
    41    32    38 1   
@<TRIPOS>SUBSTRUCTURE
     1 SB6         1 TEMP              0 ****  ****    0 ROOT
