@<TRIPOS>MOLECULE
SB6
   38    41     1     0     0
SMALL
No Charge or Current Charge


@<TRIPOS>ATOM
      1 FA1          0.3180     0.4040    -5.8300 f          1 SB6      -0.181000
      2 CA1          1.8040     0.4640    -3.9700 ca         1 SB6      -0.157500
      3 CA2          0.5300     0.2430    -4.5060 ca         1 SB6       0.171000
      4 CA3         -0.5200    -0.1630    -3.6740 ca         1 SB6      -0.157500
      5 CA4         -0.3020    -0.3340    -2.2950 ca         1 SB6      -0.066000
      6 CA5          0.9700    -0.0810    -1.7240 ca         1 SB6      -0.124500
      7 CA6          2.0260     0.2930    -2.5920 ca         1 SB6      -0.066000
      8 CB1         -3.3470    -0.8640     1.1670 ca         1 SB6       0.332900
      9 NB2         -3.8450     0.3180     0.7350 nb         1 SB6      -0.660000
     10 CB3         -2.9650     1.2570     0.3190 ca         1 SB6       0.332900
     11 CB4         -1.5750     1.0540     0.3160 ca         1 SB6      -0.152500
     12 CB5         -1.0590    -0.1760     0.7560 ca         1 SB6       0.028000
     13 CB6         -1.9720    -1.1490     1.1960 ca         1 SB6      -0.152500
     14 NC1          1.1480    -0.6880     1.9010 na         1 SB6      -0.151500
     15 CC2          0.3800    -0.4180     0.7910 cc         1 SB6      -0.154000
     16 CC3          1.2490    -0.2820    -0.2760 cd         1 SB6       0.319500
     17 NC4          2.5440    -0.4770     0.1730 nd         1 SB6      -0.668000
     18 CC5          2.4580    -0.7080     1.4760 cc         1 SB6       0.402400
     19 CE1          0.1720     0.4240     3.9570 cx         1 SB6      -0.157700
     20 CE2          0.2730     0.6160     5.4530 cx         1 SB6      -0.120900
     21 CE3          1.1310     1.4450     4.5240 cx         1 SB6      -0.120900
     22 HCA1         2.6210     0.7660    -4.6210 ha         1 SB6       0.131000
     23 HCA3        -1.5020    -0.3570    -4.0990 ha         1 SB6       0.131000
     24 HCA4        -1.1280    -0.6970    -1.6940 ha         1 SB6       0.126000
     25 HCA6         3.0240     0.4710    -2.1990 ha         1 SB6       0.126000
     26 HCB1        -4.0730    -1.6050     1.4980 h4         1 SB6       0.022100
     27 HCB3        -3.3870     2.2030    -0.0190 h4         1 SB6       0.022100
     28 HCB4        -0.9140     1.8460    -0.0220 ha         1 SB6       0.130500
     29 HCB6        -1.6280    -2.1170     1.5480 ha         1 SB6       0.130500
     30 HCC5         3.2850    -0.8910     2.1530 h5         1 SB6       0.056100
     31 HCD1        -0.1050    -1.6030     3.3080 h1         1 SB6       0.063700
     32 HCD2         1.5220    -1.2480     3.8810 h1         1 SB6       0.063700
     33 HCE1        -0.7230     0.8110     3.4750 hc         1 SB6       0.094700
     34 HE21        -0.5540     1.1100     5.9570 hc         1 SB6       0.075950
     35 HE22         0.7650    -0.1580     6.0390 hc         1 SB6       0.075950
     36 HE31         2.1950     1.2260     4.4870 hc         1 SB6       0.075950
     37 HE32         0.8790     2.4970     4.4040 hc         1 SB6       0.075950
     38 CD1          0.6880    -0.8460     3.2900 c3         1 SB6       0.102600
@<TRIPOS>BOND
     1     1     3 1   
     2     2     3 ar  
     3     2     7 ar  
     4     2    22 1   
     5     3     4 ar  
     6     4     5 ar  
     7     4    23 1   
     8     5     6 ar  
     9     5    24 1   
    10     6     7 ar  
    11     6    16 1   
    12     7    25 1   
    13     8     9 ar  
    14     8    13 ar  
    15     8    26 1   
    16     9    10 ar  
    17    10    11 ar  
    18    10    27 1   
    19    11    12 ar  
    20    11    28 1   
    21    12    13 ar  
    22    12    15 1   
    23    13    29 1   
    24    14    15 1   
    25    14    18 1   
    26    14    38 1   
    27    15    16 2   
    28    16    17 1   
    29    17    18 2   
    30    18    30 1   
    31    19    20 1   
    32    19    21 1   
    33    19    33 1   
    34    19    38 1   
    35    20    21 1   
    36    20    34 1   
    37    20    35 1   
    38    21    36 1   
    39    21    37 1   
    40    31    38 1   
    41    32    38 1   
@<TRIPOS>SUBSTRUCTURE
     1 SB6         1 TEMP              0 ****  ****    0 ROOT
