@<TRIPOS>MOLECULE
SB7
   28    28     1     0     0
SMALL
bcc


@<TRIPOS>ATOM
      1 C1          -3.8520     1.1320    -0.7470 ca         1 SB7      -0.127000
      2 C2          -2.5670     1.3000    -0.2480 ca         1 SB7      -0.124500
      3 C3          -1.9460     0.2920     0.4870 ca         1 SB7      -0.079300
      4 C4          -2.6470    -0.8930     0.7100 ca         1 SB7      -0.124500
      5 C5          -3.9310    -1.0660     0.2130 ca         1 SB7      -0.127000
      6 C6          -4.5390    -0.0530    -0.5190 ca         1 SB7      -0.129000
      7 C7          -0.5380     0.4590     0.9850 c3         1 SB7      -0.031100
      8 C8           0.4830    -0.1450     0.0190 c3         1 SB7      -0.071400
      9 C11          1.9070     0.0800     0.5010 c3         1 SB7       0.137800
     10 N14          2.8960    -0.3890    -0.4530 n3         1 SB7      -0.497100
     11 O22          2.8280    -1.7990    -0.4870 oh         1 SB7      -0.442300
     12 C24          4.2650    -0.0740    -0.0500 c3         1 SB7       0.348600
     13 O25          4.5090     1.2960    -0.1320 oh         1 SB7      -0.578800
     14 H1          -4.3160     1.9290    -1.3140 ha         1 SB7       0.129500
     15 H2          -2.0390     2.2290    -0.4280 ha         1 SB7       0.128500
     16 H4          -2.1810    -1.6880     1.2810 ha         1 SB7       0.128500
     17 H5          -4.4600    -1.9920     0.4000 ha         1 SB7       0.129500
     18 H6          -5.5410    -0.1860    -0.9060 ha         1 SB7       0.130000
     19 H71         -0.4320    -0.0100     1.9670 hc         1 SB7       0.044700
     20 H72         -0.3210     1.5220     1.1230 hc         1 SB7       0.044700
     21 H81          0.3630     0.3070    -0.9690 hc         1 SB7       0.055200
     22 H82          0.2850    -1.2140    -0.0930 hc         1 SB7       0.055200
     23 H111         2.0530    -0.3760     1.4940 h1         1 SB7       0.039700
     24 H112         2.0620     1.1560     0.6230 h1         1 SB7       0.039700
     25 H22          2.6160    -2.0040    -1.4040 ho         1 SB7       0.421000
     26 H241         4.9260    -0.5760    -0.7570 h2         1 SB7       0.049200
     27 H242         4.4840    -0.4610     0.9590 h2         1 SB7       0.049200
     28 H25          4.2930     1.7090     0.7080 ho         1 SB7       0.402000
@<TRIPOS>BOND
     1     1     2 ar  
     2     1     6 ar  
     3     1    14 1   
     4     2     3 ar  
     5     2    15 1   
     6     3     4 ar  
     7     3     7 1   
     8     4     5 ar  
     9     4    16 1   
    10     5     6 ar  
    11     5    17 1   
    12     6    18 1   
    13     7     8 1   
    14     7    19 1   
    15     7    20 1   
    16     8     9 1   
    17     8    21 1   
    18     8    22 1   
    19     9    10 1   
    20     9    23 1   
    21     9    24 1   
    22    10    11 1   
    23    10    12 1   
    24    11    25 1   
    25    12    13 1   
    26    12    26 1   
    27    12    27 1   
    28    13    28 1   
@<TRIPOS>SUBSTRUCTURE
     1 SB7         1 TEMP              0 ****  ****    0 ROOT
