@<TRIPOS>MOLECULE
SB7
   28    28     1     0     0
SMALL
No Charge or Current Charge


@<TRIPOS>ATOM
      1 C1          -3.8730     1.1640    -0.7270 ca         1 SB7      -0.109000
      2 C2          -2.5710     1.3020    -0.2160 ca         1 SB7      -0.106500
      3 C3          -1.9810     0.2550     0.5190 ca         1 SB7      -0.079300
      4 C4          -2.7070    -0.9330     0.7340 ca         1 SB7      -0.106500
      5 C5          -4.0090    -1.0710     0.2220 ca         1 SB7      -0.109000
      6 C6          -4.5930    -0.0220    -0.5080 ca         1 SB7      -0.111000
      7 C7          -0.5690     0.4020     1.0690 c3         1 SB7      -0.031100
      8 C8           0.4990    -0.0830     0.0660 c3         1 SB7      -0.071400
      9 C11          1.9420     0.0600     0.6050 c3         1 SB7       0.137800
     10 N14          2.9970    -0.3280    -0.3690 n3         1 SB7      -0.497100
     11 O22          2.8710    -1.7830    -0.6080 oh         1 SB7      -0.481300
     12 C24          4.3770    -0.0810     0.0980 c3         1 SB7       0.371800
     13 O25          4.5720     1.3260     0.0990 oh         1 SB7      -0.641000
     14 H1          -4.3230     1.9760    -1.2940 ha         1 SB7       0.111500
     15 H2          -2.0190     2.2230    -0.3920 ha         1 SB7       0.110500
     16 H4          -2.2620    -1.7510     1.2960 ha         1 SB7       0.110500
     17 H5          -4.5650    -1.9910     0.3920 ha         1 SB7       0.111500
     18 H6          -5.6010    -0.1290    -0.9040 ha         1 SB7       0.112000
     19 H71         -0.4680    -0.1630     2.0040 hc         1 SB7       0.044700
     20 H72         -0.3730     1.4510     1.3240 hc         1 SB7       0.044700
     21 H81          0.4060     0.4910    -0.8640 hc         1 SB7       0.055200
     22 H82          0.3000    -1.1320    -0.1830 hc         1 SB7       0.055200
     23 H111         2.0380    -0.5390     1.5210 h1         1 SB7       0.039700
     24 H112         2.0800     1.1100     0.8960 h1         1 SB7       0.039700
     25 H22          2.6610    -1.8670    -1.5700 ho         1 SB7       0.460000
     26 H241         5.0960    -0.5390    -0.5930 h2         1 SB7       0.049200
     27 H242         4.5310    -0.4860     1.1060 h2         1 SB7       0.049200
     28 H25          4.2050     1.6230    -0.7590 ho         1 SB7       0.441000
@<TRIPOS>BOND
     1     1     2 ar  
     2     1     6 ar  
     3     1    14 1   
     4     2     3 ar  
     5     2    15 1   
     6     3     4 ar  
     7     3     7 1   
     8     4     5 ar  
     9     4    16 1   
    10     5     6 ar  
    11     5    17 1   
    12     6    18 1   
    13     7     8 1   
    14     7    19 1   
    15     7    20 1   
    16     8     9 1   
    17     8    21 1   
    18     8    22 1   
    19     9    10 1   
    20     9    23 1   
    21     9    24 1   
    22    10    11 1   
    23    10    12 1   
    24    11    25 1   
    25    12    13 1   
    26    12    26 1   
    27    12    27 1   
    28    13    28 1   
@<TRIPOS>SUBSTRUCTURE
     1 SB7         1 TEMP              0 ****  ****    0 ROOT
