@<TRIPOS>MOLECULE
SB8
   36    37     1     0     0
SMALL
abcg2


@<TRIPOS>ATOM
      1 C1          -4.7830    24.7480    -2.6980 ca         1 SB8      -0.107000
      2 C2          -5.7460    25.0890    -1.7500 ca         1 SB8      -0.128600
      3 C3          -5.4030    25.8780    -0.6450 ca         1 SB8      -0.146000
      4 C4          -4.0900    26.3020    -0.4820 ca         1 SB8       0.129100
      5 C5          -3.1250    25.9670    -1.4390 ca         1 SB8      -0.118000
      6 C6          -3.4760    25.2030    -2.5390 ca         1 SB8      -0.088000
      7 C7          -7.1760    24.6960    -1.9080 c          1 SB8       0.588300
      8 O8          -8.0650    25.4270    -1.4880 o          1 SB8      -0.522100
      9 C9          -7.5180    23.4090    -2.5760 ca         1 SB8      -0.168600
     10 C10         -6.7020    22.2800    -2.4640 ca         1 SB8      -0.066000
     11 C11         -7.0920    21.0760    -3.0380 ca         1 SB8      -0.123000
     12 C12         -8.2860    20.9950    -3.7460 ca         1 SB8      -0.085000
     13 C13         -9.1020    22.1190    -3.8670 ca         1 SB8      -0.123000
     14 C14         -8.7260    23.3150    -3.2750 ca         1 SB8      -0.066000
     15 O24         -3.6500    27.0420     0.5710 os         1 SB8      -0.361100
     16 C25         -4.5900    27.4320     1.5710 c3         1 SB8       0.134600
     17 C26         -3.8340    28.2150     2.6270 c3         1 SB8       0.135000
     18 N29         -3.3010    29.4630     2.1420 n          1 SB8      -0.290300
     19 O32         -4.2680    30.4230     1.8410 oh         1 SB8      -0.457100
     20 C34         -2.0450    29.7420     1.7900 c          1 SB8       0.591900
     21 O35         -1.7300    30.8150     1.2660 o          1 SB8      -0.617100
     22 H1          -5.0490    24.1580    -3.5620 ha         1 SB8       0.125000
     23 H3          -6.1720    26.1340     0.0670 ha         1 SB8       0.134000
     24 H5          -2.1090    26.3120    -1.3000 ha         1 SB8       0.129000
     25 H6          -2.7260    24.9570    -3.2800 ha         1 SB8       0.121000
     26 H10         -5.7750    22.3350    -1.9100 ha         1 SB8       0.125000
     27 H11         -6.4630    20.2010    -2.9320 ha         1 SB8       0.118000
     28 H12         -8.5840    20.0590    -4.2020 ha         1 SB8       0.115000
     29 H13        -10.0300    22.0590    -4.4210 ha         1 SB8       0.118000
     30 H14         -9.3580    24.1900    -3.3530 ha         1 SB8       0.125000
     31 H251        -5.3830    28.0380     1.1280 h1         1 SB8       0.057200
     32 H252        -5.0370    26.5500     2.0380 h1         1 SB8       0.057200
     33 H261        -4.5000    28.4200     3.4670 h1         1 SB8       0.071700
     34 H262        -2.9880    27.6340     2.9940 h1         1 SB8       0.071700
     35 H32         -3.7390    31.1210     1.4020 ho         1 SB8       0.478000
     36 H34         -1.3410    28.9370     2.0230 h5         1 SB8       0.040200
@<TRIPOS>BOND
     1     1     2 ar  
     2     1     6 ar  
     3     1    22 1   
     4     2     3 ar  
     5     2     7 1   
     6     3     4 ar  
     7     3    23 1   
     8     4     5 ar  
     9     4    15 1   
    10     5     6 ar  
    11     5    24 1   
    12     6    25 1   
    13     7     8 2   
    14     7     9 1   
    15     9    10 ar  
    16     9    14 ar  
    17    10    11 ar  
    18    10    26 1   
    19    11    12 ar  
    20    11    27 1   
    21    12    13 ar  
    22    12    28 1   
    23    13    14 ar  
    24    13    29 1   
    25    14    30 1   
    26    15    16 1   
    27    16    17 1   
    28    16    31 1   
    29    16    32 1   
    30    17    18 1   
    31    17    33 1   
    32    17    34 1   
    33    18    19 1   
    34    18    20 1   
    35    19    35 1   
    36    20    21 2   
    37    20    36 1   
@<TRIPOS>SUBSTRUCTURE
     1 SB8         1 TEMP              0 ****  ****    0 ROOT
