@<TRIPOS>MOLECULE
SB8
   36    37     1     0     0
SMALL
No Charge or Current Charge


@<TRIPOS>ATOM
      1 C1          -4.8350    24.7820    -2.6810 ca         1 SB8      -0.107000
      2 C2          -5.8200    25.1280    -1.7280 ca         1 SB8      -0.128600
      3 C3          -5.4450    25.9140    -0.6130 ca         1 SB8      -0.146000
      4 C4          -4.1030    26.3220    -0.4400 ca         1 SB8       0.129100
      5 C5          -3.1380    25.9520    -1.3890 ca         1 SB8      -0.118000
      6 C6          -3.5020    25.1880    -2.5090 ca         1 SB8      -0.088000
      7 C7          -7.2660    24.7110    -1.9090 c          1 SB8       0.588300
      8 O8          -8.1750    25.4290    -1.5040 o          1 SB8      -0.522100
      9 C9          -7.5780    23.3980    -2.5920 ca         1 SB8      -0.168600
     10 C10         -6.7160    22.2840    -2.4670 ca         1 SB8      -0.066000
     11 C11         -7.0300    21.0670    -3.0970 ca         1 SB8      -0.123000
     12 C12         -8.2090    20.9450    -3.8500 ca         1 SB8      -0.085000
     13 C13         -9.0800    22.0400    -3.9660 ca         1 SB8      -0.123000
     14 C14         -8.7700    23.2590    -3.3370 ca         1 SB8      -0.066000
     15 O24         -3.6890    27.0800     0.6360 os         1 SB8      -0.361100
     16 C25         -4.5970    27.5200     1.6660 c3         1 SB8       0.134600
     17 C26         -3.7960    28.3430     2.6970 c3         1 SB8       0.135000
     18 N29         -3.1830    29.5690     2.1360 n          1 SB8      -0.290300
     19 O32         -3.9950    30.7690     2.1620 oh         1 SB8      -0.457100
     20 C34         -1.8430    29.6050     1.6760 c          1 SB8       0.591900
     21 O35         -1.3180    30.6260     1.2360 o          1 SB8      -0.617100
     22 H1          -5.1010    24.2080    -3.5670 ha         1 SB8       0.125000
     23 H3          -6.2060    26.1900     0.1110 ha         1 SB8       0.134000
     24 H5          -2.1060    26.2660    -1.2580 ha         1 SB8       0.129000
     25 H6          -2.7510    24.9140    -3.2470 ha         1 SB8       0.121000
     26 H10         -5.8070    22.3510    -1.8720 ha         1 SB8       0.125000
     27 H11         -6.3600    20.2160    -2.9980 ha         1 SB8       0.118000
     28 H12         -8.4510    20.0020    -4.3360 ha         1 SB8       0.115000
     29 H13         -9.9980    21.9460    -4.5420 ha         1 SB8       0.118000
     30 H14         -9.4560    24.0990    -3.4350 ha         1 SB8       0.125000
     31 H251        -5.3960    28.1450     1.2450 h1         1 SB8       0.057200
     32 H252        -5.0560    26.6610     2.1720 h1         1 SB8       0.057200
     33 H261        -4.4670    28.6280     3.5170 h1         1 SB8       0.071700
     34 H262        -3.0100    27.7080     3.1270 h1         1 SB8       0.071700
     35 H32         -4.3790    30.8470     1.2570 ho         1 SB8       0.478000
     36 H34         -1.3310    28.6260     1.7510 h5         1 SB8       0.040200
@<TRIPOS>BOND
     1     1     2 ar  
     2     1     6 ar  
     3     1    22 1   
     4     2     3 ar  
     5     2     7 1   
     6     3     4 ar  
     7     3    23 1   
     8     4     5 ar  
     9     4    15 1   
    10     5     6 ar  
    11     5    24 1   
    12     6    25 1   
    13     7     8 2   
    14     7     9 1   
    15     9    10 ar  
    16     9    14 ar  
    17    10    11 ar  
    18    10    26 1   
    19    11    12 ar  
    20    11    27 1   
    21    12    13 ar  
    22    12    28 1   
    23    13    14 ar  
    24    13    29 1   
    25    14    30 1   
    26    15    16 1   
    27    16    17 1   
    28    16    31 1   
    29    16    32 1   
    30    17    18 1   
    31    17    33 1   
    32    17    34 1   
    33    18    19 1   
    34    18    20 1   
    35    19    35 1   
    36    20    21 2   
    37    20    36 1   
@<TRIPOS>SUBSTRUCTURE
     1 SB8         1 TEMP              0 ****  ****    0 ROOT
