@<TRIPOS>MOLECULE
SB9
   28    28     1     0     0
SMALL
No Charge or Current Charge


@<TRIPOS>ATOM
      1 C1          23.8120    -5.1070     8.8640 ca         1 SB9       0.357300
      2 N2          24.3870    -4.7120     7.7060 nb         1 SB9      -0.687000
      3 C3          25.6700    -4.2820     7.7450 ca         1 SB9       0.354300
      4 C4          26.4200    -4.2380     8.9350 ca         1 SB9      -0.161000
      5 C5          25.8250    -4.6510    10.1370 ca         1 SB9      -0.068000
      6 C6          24.4940    -5.0940    10.0950 ca         1 SB9      -0.164000
      7 C7          22.3750    -5.5840     8.7680 c3         1 SB9      -0.142400
      8 C11         26.2830    -3.8530     6.4200 c3         1 SB9      -0.125700
      9 C12         27.1130    -4.9810     5.7580 c3         1 SB9      -0.095400
     10 C15         27.6940    -4.6090     4.3760 c3         1 SB9       0.136000
     11 N18         28.6720    -3.5010     4.4200 n          1 SB9      -0.294300
     12 O21         30.0250    -3.8500     4.7980 oh         1 SB9      -0.455100
     13 C23         28.3430    -2.1770     4.0330 c          1 SB9       0.580900
     14 O24         29.1580    -1.2570     4.0480 o          1 SB9      -0.623100
     15 H4          27.4490    -3.8900     8.9210 ha         1 SB9       0.125000
     16 H5          26.3800    -4.6290    11.0730 ha         1 SB9       0.119000
     17 H6          23.9960    -5.4250    11.0020 ha         1 SB9       0.122000
     18 H71         21.8800    -5.5570     9.7450 hc         1 SB9       0.050700
     19 H72         21.7920    -4.9550     8.0840 hc         1 SB9       0.050700
     20 H73         22.3320    -6.6150     8.3980 hc         1 SB9       0.050700
     21 H111        25.4970    -3.5290     5.7260 hc         1 SB9       0.054700
     22 H112        26.9230    -2.9780     6.5840 hc         1 SB9       0.054700
     23 H121        27.9310    -5.2770     6.4270 hc         1 SB9       0.064200
     24 H122        26.4740    -5.8650     5.6360 hc         1 SB9       0.064200
     25 H151        28.1900    -5.4910     3.9510 h1         1 SB9       0.059200
     26 H152        26.8730    -4.3420     3.6970 h1         1 SB9       0.059200
     27 H21         30.0920    -3.6400     5.7590 ho         1 SB9       0.475000
     28 H23         27.2850    -2.0640     3.7280 h5         1 SB9       0.036200
@<TRIPOS>BOND
     1     1     2 ar  
     2     1     6 ar  
     3     1     7 1   
     4     2     3 ar  
     5     3     4 ar  
     6     3     8 1   
     7     4     5 ar  
     8     4    15 1   
     9     5     6 ar  
    10     5    16 1   
    11     6    17 1   
    12     7    18 1   
    13     7    19 1   
    14     7    20 1   
    15     8     9 1   
    16     8    21 1   
    17     8    22 1   
    18     9    10 1   
    19     9    23 1   
    20     9    24 1   
    21    10    11 1   
    22    10    25 1   
    23    10    26 1   
    24    11    12 1   
    25    11    13 1   
    26    12    27 1   
    27    13    14 2   
    28    13    28 1   
@<TRIPOS>SUBSTRUCTURE
     1 SB9         1 TEMP              0 ****  ****    0 ROOT
