@<TRIPOS>MOLECULE
SB9
   28    28     1     0     0
SMALL
abcg2


@<TRIPOS>ATOM
      1 C1          23.8780    -5.1840     8.8490 ca         1 SB9       0.357300
      2 N2          24.4540    -4.7560     7.7170 nb         1 SB9      -0.687000
      3 C3          25.6670    -4.1930     7.7670 ca         1 SB9       0.354300
      4 C4          26.3580    -4.0350     8.9680 ca         1 SB9      -0.161000
      5 C5          25.7670    -4.4760    10.1420 ca         1 SB9      -0.068000
      6 C6          24.5090    -5.0600    10.0860 ca         1 SB9      -0.164000
      7 C7          22.5170    -5.8070     8.7220 c3         1 SB9      -0.142400
      8 C11         26.2800    -3.7740     6.4590 c3         1 SB9      -0.125700
      9 C12         26.8950    -4.9650     5.7160 c3         1 SB9      -0.095400
     10 C15         27.5080    -4.5830     4.3720 c3         1 SB9       0.136000
     11 N18         28.5870    -3.6260     4.4870 n          1 SB9      -0.294300
     12 O21         29.7070    -4.1000     5.1690 oh         1 SB9      -0.455100
     13 C23         28.6000    -2.3420     4.1360 c          1 SB9       0.580900
     14 O24         29.5620    -1.6020     4.3720 o          1 SB9      -0.623100
     15 H4          27.3370    -3.5740     8.9730 ha         1 SB9       0.125000
     16 H5          26.2790    -4.3650    11.0910 ha         1 SB9       0.119000
     17 H6          24.0180    -5.4130    10.9820 ha         1 SB9       0.122000
     18 H71         22.1130    -6.0820     9.6950 hc         1 SB9       0.050700
     19 H72         21.8250    -5.1140     8.2380 hc         1 SB9       0.050700
     20 H73         22.5670    -6.7030     8.0990 hc         1 SB9       0.050700
     21 H111        25.5090    -3.3170     5.8320 hc         1 SB9       0.054700
     22 H112        27.0480    -3.0210     6.6440 hc         1 SB9       0.054700
     23 H121        27.6540    -5.4390     6.3430 hc         1 SB9       0.064200
     24 H122        26.1240    -5.7160     5.5250 hc         1 SB9       0.064200
     25 H151        27.8910    -5.4690     3.8610 h1         1 SB9       0.059200
     26 H152        26.7640    -4.1140     3.7250 h1         1 SB9       0.059200
     27 H21         30.2630    -3.2960     5.2380 ho         1 SB9       0.475000
     28 H23         27.6860    -2.0240     3.6230 h5         1 SB9       0.036200
@<TRIPOS>BOND
     1     1     2 ar  
     2     1     6 ar  
     3     1     7 1   
     4     2     3 ar  
     5     3     4 ar  
     6     3     8 1   
     7     4     5 ar  
     8     4    15 1   
     9     5     6 ar  
    10     5    16 1   
    11     6    17 1   
    12     7    18 1   
    13     7    19 1   
    14     7    20 1   
    15     8     9 1   
    16     8    21 1   
    17     8    22 1   
    18     9    10 1   
    19     9    23 1   
    20     9    24 1   
    21    10    11 1   
    22    10    25 1   
    23    10    26 1   
    24    11    12 1   
    25    11    13 1   
    26    12    27 1   
    27    13    14 2   
    28    13    28 1   
@<TRIPOS>SUBSTRUCTURE
     1 SB9         1 TEMP              0 ****  ****    0 ROOT
