@<TRIPOS>MOLECULE
SBA
   65    65     1     0     0
SMALL
No Charge or Current Charge


@<TRIPOS>ATOM
      1 C5           0.1250     2.5450    -7.4210 ca         1 SBA      -0.115000
      2 C6           0.4920     1.5200    -6.5310 ca         1 SBA      -0.085500
      3 C1          -0.4960     0.7560    -5.8800 ca         1 SBA      -0.100300
      4 C2          -1.8570     1.0300    -6.1260 ca         1 SBA      -0.085500
      5 C3          -2.2230     2.0540    -7.0170 ca         1 SBA      -0.115000
      6 C4          -1.2330     2.8120    -7.6650 ca         1 SBA      -0.099000
      7 C7          -0.0980    -0.3550    -4.9160 c3         1 SBA       0.231900
      8 O8           0.0280     0.2100    -3.6020 os         1 SBA      -0.455100
      9 C9           0.3860    -0.6270    -2.5920 c          1 SBA       0.644100
     10 O27          0.5950    -1.8250    -2.6970 o          1 SBA      -0.554000
     11 N10          0.4450     0.0870    -1.4310 ns         1 SBA      -0.487900
     12 C11          0.7920    -0.4600    -0.1000 c3         1 SBA       0.047700
     13 C12         -0.1440     0.1480     0.9850 c          1 SBA       0.586100
     14 N13         -0.1320    -0.5080     2.1980 ns         1 SBA      -0.491900
     15 C14         -0.9010    -0.0980     3.3820 c3         1 SBA       0.079700
     16 C15         -0.1290     1.0020     4.1790 c3         1 SBA       0.146300
     17 C23         -1.3110    -1.3450     4.2220 c3         1 SBA      -0.086400
     18 C24         -2.0770    -2.4580     3.4480 c3         1 SBA      -0.056700
     19 C25         -2.3460    -3.6760     4.3610 c3         1 SBA      -0.091600
     20 C26         -3.3930    -1.9490     2.8130 c3         1 SBA      -0.091600
     21 C19          2.2880    -0.1940     0.2410 c3         1 SBA      -0.089400
     22 C20          3.3320    -0.9330    -0.6420 c3         1 SBA      -0.057700
     23 C21          4.7600    -0.4130    -0.3580 c3         1 SBA      -0.092100
     24 C22          3.2720    -2.4710    -0.4730 c3         1 SBA      -0.092100
     25 O28         -0.8490     1.1320     0.7920 o          1 SBA      -0.607100
     26 O29          1.1130     0.4940     4.7060 oh         1 SBA      -0.708000
     27 C16         -0.9440     1.6470     5.3310 c3         1 SBA       0.127600
     28 O17         -0.0660     2.5400     6.0460 os         1 SBA      -0.442000
     29 C18         -0.6850     3.2300     7.1440 c3         1 SBA       0.143900
     30 H5           0.8920     3.1310    -7.9210 ha         1 SBA       0.114000
     31 H6           1.5460     1.3210    -6.3460 ha         1 SBA       0.115000
     32 H2          -2.6300     0.4500    -5.6270 ha         1 SBA       0.115000
     33 H3          -3.2750     2.2610    -7.2030 ha         1 SBA       0.114000
     34 H4          -1.5170     3.6050    -8.3530 ha         1 SBA       0.113000
     35 H71          0.8520    -0.7990    -5.2420 h1         1 SBA       0.055700
     36 H72         -0.8620    -1.1440    -4.9290 h1         1 SBA       0.055700
     37 HNA          0.1920     1.0650    -1.5040 hn         1 SBA       0.343500
     38 H11          0.6000    -1.5400    -0.0940 h1         1 SBA       0.092700
     39 HND          0.5030    -1.2910     2.2920 hn         1 SBA       0.321500
     40 H14         -1.8290     0.3720     3.0290 h1         1 SBA       0.090700
     41 H15          0.0860     1.8150     3.4690 h1         1 SBA       0.094700
     42 H231        -0.4070    -1.7860     4.6600 hc         1 SBA       0.040700
     43 H232        -1.9360    -1.0250     5.0630 hc         1 SBA       0.040700
     44 H24         -1.4350    -2.8130     2.6310 hc         1 SBA       0.056700
     45 H251        -2.8350    -4.4820     3.8000 hc         1 SBA       0.035200
     46 H252        -1.4070    -4.0710     4.7670 hc         1 SBA       0.035200
     47 H253        -2.9940    -3.4000     5.2010 hc         1 SBA       0.035200
     48 H261        -4.0560    -1.5220     3.5750 hc         1 SBA       0.035200
     49 H262        -3.1970    -1.1820     2.0550 hc         1 SBA       0.035200
     50 H263        -3.9260    -2.7700     2.3180 hc         1 SBA       0.035200
     51 H191         2.4640     0.8880     0.1750 hc         1 SBA       0.055200
     52 H192         2.4730    -0.4650     1.2880 hc         1 SBA       0.055200
     53 H20          3.1170    -0.7050    -1.6930 hc         1 SBA       0.052700
     54 H211         5.4900    -0.9040    -1.0130 hc         1 SBA       0.035867
     55 H212         4.8230     0.6670    -0.5350 hc         1 SBA       0.035867
     56 H213         5.0470    -0.6080     0.6830 hc         1 SBA       0.035867
     57 H221         3.4600    -2.7560     0.5700 hc         1 SBA       0.035867
     58 H222         2.2960    -2.8700    -0.7660 hc         1 SBA       0.035867
     59 H223         4.0290    -2.9570    -1.1010 hc         1 SBA       0.035867
     60 HOT          1.3430     1.1160     5.4370 ho         1 SBA       0.500000
     61 H161        -1.3260     0.8730     6.0070 h1         1 SBA       0.027200
     62 H162        -1.8000     2.1930     4.9120 h1         1 SBA       0.027200
     63 H181         0.0410     3.8880     7.6380 h1         1 SBA       0.030367
     64 H182        -1.5230     3.8470     6.7940 h1         1 SBA       0.030367
     65 H183        -1.0640     2.5180     7.8890 h1         1 SBA       0.030367
@<TRIPOS>BOND
     1     1     2 ar  
     2     1     6 ar  
     3     1    30 1   
     4     2     3 ar  
     5     2    31 1   
     6     3     4 ar  
     7     3     7 1   
     8     4     5 ar  
     9     4    32 1   
    10     5     6 ar  
    11     5    33 1   
    12     6    34 1   
    13     7     8 1   
    14     7    35 1   
    15     7    36 1   
    16     8     9 1   
    17     9    10 2   
    18     9    11 1   
    19    11    12 1   
    20    11    37 1   
    21    12    13 1   
    22    12    21 1   
    23    12    38 1   
    24    13    14 1   
    25    13    25 2   
    26    14    15 1   
    27    14    39 1   
    28    15    16 1   
    29    15    17 1   
    30    15    40 1   
    31    16    26 1   
    32    16    27 1   
    33    16    41 1   
    34    17    18 1   
    35    17    42 1   
    36    17    43 1   
    37    18    19 1   
    38    18    20 1   
    39    18    44 1   
    40    19    45 1   
    41    19    46 1   
    42    19    47 1   
    43    20    48 1   
    44    20    49 1   
    45    20    50 1   
    46    21    22 1   
    47    21    51 1   
    48    21    52 1   
    49    22    23 1   
    50    22    24 1   
    51    22    53 1   
    52    23    54 1   
    53    23    55 1   
    54    23    56 1   
    55    24    57 1   
    56    24    58 1   
    57    24    59 1   
    58    26    60 1   
    59    27    28 1   
    60    27    61 1   
    61    27    62 1   
    62    28    29 1   
    63    29    63 1   
    64    29    64 1   
    65    29    65 1   
@<TRIPOS>SUBSTRUCTURE
     1 SBA         1 TEMP              0 ****  ****    0 ROOT
