@<TRIPOS>MOLECULE
SBA
   65    65     1     0     0
SMALL
abcg2


@<TRIPOS>ATOM
      1 C5          -0.0430     1.5550    -7.2960 ca         1 SBA      -0.115000
      2 C6           0.2770     0.7230    -6.2330 ca         1 SBA      -0.085500
      3 C1          -0.6910    -0.1080    -5.6710 ca         1 SBA      -0.100300
      4 C2          -1.9800    -0.0930    -6.1910 ca         1 SBA      -0.085500
      5 C3          -2.3020     0.7350    -7.2600 ca         1 SBA      -0.115000
      6 C4          -1.3340     1.5610    -7.8130 ca         1 SBA      -0.099000
      7 C7          -0.3420    -1.0000    -4.5190 c3         1 SBA       0.231900
      8 O8          -0.1060    -0.1560    -3.3880 os         1 SBA      -0.455100
      9 C9           0.3200    -0.7470    -2.2660 c          1 SBA       0.644100
     10 O27          0.4530    -1.9480    -2.1430 o          1 SBA      -0.554000
     11 N10          0.5760     0.1720    -1.3190 ns         1 SBA      -0.487900
     12 C11          1.0280    -0.1520     0.0070 c3         1 SBA       0.047700
     13 C12          0.0080     0.3270     1.0400 c          1 SBA       0.586100
     14 N13         -0.0250    -0.4080     2.1600 ns         1 SBA      -0.491900
     15 C14         -0.7330    -0.0500     3.3730 c3         1 SBA       0.079700
     16 C15          0.2960     0.3540     4.4430 c3         1 SBA       0.146300
     17 C23         -1.6630    -1.1820     3.8070 c3         1 SBA      -0.086400
     18 C24         -2.7310    -1.5720     2.7840 c3         1 SBA      -0.056700
     19 C25         -3.5400    -2.7510     3.3160 c3         1 SBA      -0.091600
     20 C26         -3.6500    -0.4040     2.4380 c3         1 SBA      -0.091600
     21 C19          2.3780     0.5100     0.3200 c3         1 SBA      -0.089400
     22 C20          3.5290     0.0760    -0.5880 c3         1 SBA      -0.057700
     23 C21          4.7660     0.9180    -0.2860 c3         1 SBA      -0.092100
     24 C22          3.8470    -1.4090    -0.4460 c3         1 SBA      -0.092100
     25 O28         -0.6660     1.3280     0.8470 o          1 SBA      -0.607100
     26 O29          1.2300    -0.6730     4.6960 oh         1 SBA      -0.708000
     27 C16         -0.3710     0.8590     5.7110 c3         1 SBA       0.127600
     28 O17          0.5940     1.4800     6.5170 os         1 SBA      -0.442000
     29 C18          0.0580     1.9580     7.7240 c3         1 SBA       0.143900
     30 H5           0.7150     2.1970    -7.7250 ha         1 SBA       0.114000
     31 H6           1.2870     0.7170    -5.8430 ha         1 SBA       0.115000
     32 H2          -2.7390    -0.7350    -5.7600 ha         1 SBA       0.115000
     33 H3          -3.3080     0.7350    -7.6580 ha         1 SBA       0.114000
     34 H4          -1.5810     2.2070    -8.6460 ha         1 SBA       0.113000
     35 H71          0.5540    -1.5850    -4.7400 h1         1 SBA       0.055700
     36 H72         -1.1580    -1.6970    -4.3120 h1         1 SBA       0.055700
     37 HNA          0.4000     1.1430    -1.5280 hn         1 SBA       0.343500
     38 H11          1.1290    -1.2350     0.0730 h1         1 SBA       0.092700
     39 HND          0.5930    -1.2030     2.2240 hn         1 SBA       0.321500
     40 H14         -1.3250     0.8380     3.1500 h1         1 SBA       0.090700
     41 H15          0.8770     1.1810     4.0200 h1         1 SBA       0.094700
     42 H231        -1.0710    -2.0710     4.0520 hc         1 SBA       0.040700
     43 H232        -2.1660    -0.8870     4.7340 hc         1 SBA       0.040700
     44 H24         -2.2280    -1.8960     1.8670 hc         1 SBA       0.056700
     45 H251        -4.2950    -3.0700     2.5960 hc         1 SBA       0.035200
     46 H252        -2.9020    -3.6110     3.5290 hc         1 SBA       0.035200
     47 H253        -4.0580    -2.4860     4.2410 hc         1 SBA       0.035200
     48 H261        -4.0890     0.0290     3.3400 hc         1 SBA       0.035200
     49 H262        -3.1290     0.3910     1.9050 hc         1 SBA       0.035200
     50 H263        -4.4710    -0.7340     1.7990 hc         1 SBA       0.035200
     51 H191         2.2530     1.5960     0.2550 hc         1 SBA       0.055200
     52 H192         2.6410     0.2930     1.3610 hc         1 SBA       0.055200
     53 H20          3.2390     0.2700    -1.6260 hc         1 SBA       0.052700
     54 H211         5.5920     0.6490    -0.9470 hc         1 SBA       0.035867
     55 H212         4.5680     1.9830    -0.4180 hc         1 SBA       0.035867
     56 H213         5.1040     0.7660     0.7420 hc         1 SBA       0.035867
     57 H221         4.0960    -1.6550     0.5900 hc         1 SBA       0.035867
     58 H222         3.0170    -2.0460    -0.7510 hc         1 SBA       0.035867
     59 H223         4.7030    -1.6810    -1.0650 hc         1 SBA       0.035867
     60 HOT          0.8060    -1.3610     5.2200 ho         1 SBA       0.500000
     61 H161        -0.8480     0.0280     6.2540 h1         1 SBA       0.027200
     62 H162        -1.1740     1.5620     5.4450 h1         1 SBA       0.027200
     63 H181         0.8650     2.4130     8.2960 h1         1 SBA       0.030367
     64 H182        -0.7190     2.7140     7.5570 h1         1 SBA       0.030367
     65 H183        -0.3820     1.1540     8.3260 h1         1 SBA       0.030367
@<TRIPOS>BOND
     1     1     2 ar  
     2     1     6 ar  
     3     1    30 1   
     4     2     3 ar  
     5     2    31 1   
     6     3     4 ar  
     7     3     7 1   
     8     4     5 ar  
     9     4    32 1   
    10     5     6 ar  
    11     5    33 1   
    12     6    34 1   
    13     7     8 1   
    14     7    35 1   
    15     7    36 1   
    16     8     9 1   
    17     9    10 2   
    18     9    11 1   
    19    11    12 1   
    20    11    37 1   
    21    12    13 1   
    22    12    21 1   
    23    12    38 1   
    24    13    14 1   
    25    13    25 2   
    26    14    15 1   
    27    14    39 1   
    28    15    16 1   
    29    15    17 1   
    30    15    40 1   
    31    16    26 1   
    32    16    27 1   
    33    16    41 1   
    34    17    18 1   
    35    17    42 1   
    36    17    43 1   
    37    18    19 1   
    38    18    20 1   
    39    18    44 1   
    40    19    45 1   
    41    19    46 1   
    42    19    47 1   
    43    20    48 1   
    44    20    49 1   
    45    20    50 1   
    46    21    22 1   
    47    21    51 1   
    48    21    52 1   
    49    22    23 1   
    50    22    24 1   
    51    22    53 1   
    52    23    54 1   
    53    23    55 1   
    54    23    56 1   
    55    24    57 1   
    56    24    58 1   
    57    24    59 1   
    58    26    60 1   
    59    27    28 1   
    60    27    61 1   
    61    27    62 1   
    62    28    29 1   
    63    29    63 1   
    64    29    64 1   
    65    29    65 1   
@<TRIPOS>SUBSTRUCTURE
     1 SBA         1 TEMP              0 ****  ****    0 ROOT
