@<TRIPOS>MOLECULE
SBB
   47    49     1     0     0
SMALL
No Charge or Current Charge


@<TRIPOS>ATOM
      1 C01         -0.9890    -1.3500     3.2000 ca         1 SBB      -0.098000
      2 C02         -0.7030    -1.0870     4.5500 ca         1 SBB      -0.018500
      3 C03         -0.1210     0.1390     4.9240 ca         1 SBB      -0.252500
      4 C04          0.1750     1.0960     3.9330 ca         1 SBB      -0.018500
      5 C05         -0.1120     0.8310     2.5830 ca         1 SBB      -0.098000
      6 C06         -0.7010    -0.3980     2.1940 ca         1 SBB      -0.096600
      7 C07         -1.0250    -0.7220     0.7460 c          1 SBB       0.607700
      8 O08         -1.5240    -1.7900     0.4150 o          1 SBB      -0.594100
      9 N09         -0.7300     0.2500    -0.1880 ns         1 SBB      -0.499900
     10 C10         -0.9280     0.1150    -1.6380 c3         1 SBB       0.101000
     11 C11          0.3740    -0.2370    -2.4030 c3         1 SBB      -0.028400
     12 C12          0.9560    -1.6210    -2.0010 c3         1 SBB      -0.067400
     13 C13          2.2710    -1.9820    -2.7250 c3         1 SBB      -0.089100
     14 S14          0.2470     0.4790     6.6510 sy         1 SBB       1.126600
     15 N15          1.7690    -0.0820     6.8240 n8         1 SBB      -1.006100
     16 O16          0.3850     1.9150     6.8840 o          1 SBB      -0.542500
     17 O17         -0.5370    -0.3830     7.5330 o          1 SBB      -0.542500
     18 C18          1.1990     1.7320    -7.0530 cc         1 SBB      -0.240200
     19 C19          0.6160     1.3790    -8.2640 cd         1 SBB      -0.164100
     20 C20          0.6300     0.8850    -6.0510 ca         1 SBB      -0.098800
     21 N21         -0.3070     0.3280    -8.0370 na         1 SBB      -0.222700
     22 C22         -0.2620     0.0630    -6.6770 ca         1 SBB      -0.051200
     23 C23          0.8650     0.8220    -4.6720 ca         1 SBB      -0.056000
     24 C24         -0.9920    -0.8930    -5.9600 ca         1 SBB      -0.126000
     25 C25          0.1460    -0.1320    -3.9130 ca         1 SBB      -0.110300
     26 C26         -0.7820    -0.9870    -4.5680 ca         1 SBB      -0.086000
     27 HC1         -1.4390    -2.3050     2.9370 ha         1 SBB       0.130500
     28 HC2         -0.9350    -1.8410     5.3020 ha         1 SBB       0.140000
     29 HC4          0.6300     2.0480     4.2050 ha         1 SBB       0.140000
     30 HC5          0.1330     1.5960     1.8510 ha         1 SBB       0.130500
     31 HN9         -0.3260     1.1100     0.1590 hn         1 SBB       0.314500
     32 H101        -1.3110     1.0730    -2.0160 h1         1 SBB       0.063200
     33 H102        -1.6950    -0.6440    -1.8390 h1         1 SBB       0.063200
     34 H11          1.1190     0.5140    -2.1110 hc         1 SBB       0.044700
     35 H121         0.2150    -2.4060    -2.1940 hc         1 SBB       0.044200
     36 H122         1.1510    -1.6340    -0.9220 hc         1 SBB       0.044200
     37 H131         2.6590    -2.9390    -2.3550 hc         1 SBB       0.033700
     38 H132         2.1140    -2.0750    -3.8060 hc         1 SBB       0.033700
     39 H133         3.0340    -1.2130    -2.5500 hc         1 SBB       0.033700
     40 H151         2.2180     0.7320     7.2350 hn         1 SBB       0.476000
     41 H152         1.6480    -0.6890     7.6310 hn         1 SBB       0.476000
     42 H19          0.7860     1.7920    -9.2570 h4         1 SBB       0.211000
     43 H21         -0.8850    -0.1390    -8.7300 hn         1 SBB       0.349000
     44 H23          1.5840     1.4910    -4.2040 ha         1 SBB       0.111000
     45 H24         -1.7010    -1.5480    -6.4610 ha         1 SBB       0.114000
     46 H26         -1.3390    -1.7260    -3.9970 ha         1 SBB       0.115000
     47 H18          1.9480     2.5100    -6.9110 ha         1 SBB       0.205000
@<TRIPOS>BOND
     1     1     2 ar  
     2     1     6 ar  
     3     1    27 1   
     4     2     3 ar  
     5     2    28 1   
     6     3     4 ar  
     7     3    14 1   
     8     4     5 ar  
     9     4    29 1   
    10     5     6 ar  
    11     5    30 1   
    12     6     7 1   
    13     7     8 2   
    14     7     9 1   
    15     9    10 1   
    16     9    31 1   
    17    10    11 1   
    18    10    32 1   
    19    10    33 1   
    20    11    12 1   
    21    11    25 1   
    22    11    34 1   
    23    12    13 1   
    24    12    35 1   
    25    12    36 1   
    26    13    37 1   
    27    13    38 1   
    28    13    39 1   
    29    14    15 1   
    30    14    16 2   
    31    14    17 2   
    32    15    40 1   
    33    15    41 1   
    34    18    19 2   
    35    18    20 1   
    36    18    47 1   
    37    19    21 1   
    38    19    42 1   
    39    20    22 ar  
    40    20    23 ar  
    41    21    22 1   
    42    21    43 1   
    43    22    24 ar  
    44    23    25 ar  
    45    23    44 1   
    46    24    26 ar  
    47    24    45 1   
    48    25    26 ar  
    49    26    46 1   
@<TRIPOS>SUBSTRUCTURE
     1 SBB         1 TEMP              0 ****  ****    0 ROOT
