@<TRIPOS>MOLECULE
SBB
   47    49     1     0     0
SMALL
abcg2


@<TRIPOS>ATOM
      1 C01         -1.3840    -0.9360     3.1420 ca         1 SBB      -0.098000
      2 C02         -1.1290    -0.6600     4.4720 ca         1 SBB      -0.018500
      3 C03         -0.0650     0.1720     4.7970 ca         1 SBB      -0.252500
      4 C04          0.7370     0.7320     3.8170 ca         1 SBB      -0.018500
      5 C05          0.4620     0.4590     2.4840 ca         1 SBB      -0.098000
      6 C06         -0.6020    -0.3660     2.1390 ca         1 SBB      -0.096600
      7 C07         -0.9170    -0.7140     0.7150 c          1 SBB       0.607700
      8 O08         -1.3910    -1.8070     0.4360 o          1 SBB      -0.594100
      9 N09         -0.6540     0.2430    -0.1870 ns         1 SBB      -0.499900
     10 C10         -0.8310     0.0880    -1.6140 c3         1 SBB       0.101000
     11 C11          0.4920    -0.0630    -2.3770 c3         1 SBB      -0.028400
     12 C12          1.3000    -1.2760    -1.9080 c3         1 SBB      -0.067400
     13 C13          2.6270    -1.4250    -2.6370 c3         1 SBB      -0.089100
     14 S14          0.2520     0.5310     6.5040 sy         1 SBB       1.126600
     15 N15          0.8340    -0.9210     7.0270 n8         1 SBB      -1.006100
     16 O16          1.2460     1.5940     6.5540 o          1 SBB      -0.542500
     17 O17         -1.0120     0.7290     7.1970 o          1 SBB      -0.542500
     18 C18          0.6250     1.8230    -7.1270 cc         1 SBB      -0.240200
     19 C19          0.1100     1.2380    -8.2490 cd         1 SBB      -0.164100
     20 C20          0.3500     0.9350    -6.0410 ca         1 SBB      -0.098800
     21 N21         -0.4670     0.0440    -7.9260 na         1 SBB      -0.222700
     22 C22         -0.3380    -0.1710    -6.5840 ca         1 SBB      -0.051200
     23 C23          0.6190     0.9600    -4.6660 ca         1 SBB      -0.056000
     24 C24         -0.7580    -1.2360    -5.7870 ca         1 SBB      -0.126000
     25 C25          0.2110    -0.0880    -3.8620 ca         1 SBB      -0.110300
     26 C26         -0.4780    -1.1760    -4.4370 ca         1 SBB      -0.086000
     27 HC1         -2.2060    -1.5890     2.8830 ha         1 SBB       0.130500
     28 HC2         -1.7520    -1.0970     5.2410 ha         1 SBB       0.140000
     29 HC4          1.5730     1.3680     4.0720 ha         1 SBB       0.140000
     30 HC5          1.1080     0.8840     1.7270 ha         1 SBB       0.130500
     31 HN9         -0.3460     1.1460     0.1360 hn         1 SBB       0.314500
     32 H101        -1.3620     0.9640    -1.9890 h1         1 SBB       0.063200
     33 H102        -1.4720    -0.7760    -1.7860 h1         1 SBB       0.063200
     34 H11          1.0920     0.8320    -2.1740 hc         1 SBB       0.044700
     35 H121         0.7040    -2.1870    -2.0230 hc         1 SBB       0.044200
     36 H122         1.4930    -1.1760    -0.8370 hc         1 SBB       0.044200
     37 H131         3.2080    -2.2510    -2.2260 hc         1 SBB       0.033700
     38 H132         2.4830    -1.6180    -3.7010 hc         1 SBB       0.033700
     39 H133         3.2300    -0.5190    -2.5460 hc         1 SBB       0.033700
     40 H151         1.7950    -1.0860     6.7460 hn         1 SBB       0.476000
     41 H152         0.7370    -1.0220     8.0330 hn         1 SBB       0.476000
     42 H19          0.1110     1.5850    -9.2700 h4         1 SBB       0.211000
     43 H21         -0.9080    -0.5790    -8.5800 hn         1 SBB       0.349000
     44 H23          1.1460     1.8010    -4.2300 ha         1 SBB       0.111000
     45 H24         -1.2830    -2.0830    -6.2100 ha         1 SBB       0.114000
     46 H26         -0.7990    -2.0000    -3.8100 ha         1 SBB       0.115000
     47 H18          1.1390     2.7700    -7.0840 ha         1 SBB       0.205000
@<TRIPOS>BOND
     1     1     2 ar  
     2     1     6 ar  
     3     1    27 1   
     4     2     3 ar  
     5     2    28 1   
     6     3     4 ar  
     7     3    14 1   
     8     4     5 ar  
     9     4    29 1   
    10     5     6 ar  
    11     5    30 1   
    12     6     7 1   
    13     7     8 2   
    14     7     9 1   
    15     9    10 1   
    16     9    31 1   
    17    10    11 1   
    18    10    32 1   
    19    10    33 1   
    20    11    12 1   
    21    11    25 1   
    22    11    34 1   
    23    12    13 1   
    24    12    35 1   
    25    12    36 1   
    26    13    37 1   
    27    13    38 1   
    28    13    39 1   
    29    14    15 1   
    30    14    16 2   
    31    14    17 2   
    32    15    40 1   
    33    15    41 1   
    34    18    19 2   
    35    18    20 1   
    36    18    47 1   
    37    19    21 1   
    38    19    42 1   
    39    20    22 ar  
    40    20    23 ar  
    41    21    22 1   
    42    21    43 1   
    43    22    24 ar  
    44    23    25 ar  
    45    23    44 1   
    46    24    26 ar  
    47    24    45 1   
    48    25    26 ar  
    49    26    46 1   
@<TRIPOS>SUBSTRUCTURE
     1 SBB         1 TEMP              0 ****  ****    0 ROOT
