@<TRIPOS>MOLECULE
SBC
   37    40     1     0     0
SMALL
No Charge or Current Charge


@<TRIPOS>ATOM
      1 C1          -2.3460    -0.0300    -1.3770 ca         1 SBC      -0.000500
      2 C2          -0.9500     0.1360    -1.3490 ca         1 SBC      -0.130500
      3 C3          -0.3090     0.5640    -0.1720 ca         1 SBC       0.076800
      4 C4          -1.0720     0.8260     0.9810 ca         1 SBC      -0.130500
      5 C5          -2.4680     0.6620     0.9600 ca         1 SBC      -0.000500
      6 C6          -3.1090     0.2300    -0.2200 ca         1 SBC      -0.271500
      7 N7           1.0760     0.7080    -0.1420 na         1 SBC       0.186800
      8 C8           1.9490    -0.3370     0.0500 ca         1 SBC       0.028800
      9 C9           3.2100     0.1810     0.0040 ca         1 SBC      -0.220900
     10 C10          3.0270     1.6090    -0.2260 cc         1 SBC       0.320900
     11 N11          1.7140     1.9330    -0.3160 nd         1 SBC      -0.528100
     12 C12          1.7640    -1.7040     0.2670 ca         1 SBC      -0.248900
     13 C13          4.3600    -0.6310     0.1690 ca         1 SBC       0.008000
     14 C14          4.1690    -2.0210     0.3870 ca         1 SBC      -0.156000
     15 C15          2.8470    -2.5120     0.4290 ca         1 SBC      -0.017200
     16 C16          0.6050    -2.5520     0.3760 cc         1 SBC       0.366800
     17 N17          2.3610    -3.7880     0.6240 na         1 SBC      -0.041400
     18 N18          0.9550    -3.8320     0.5950 nd         1 SBC      -0.523100
     19 C19          4.1600     2.6020    -0.3490 c          1 SBC       0.557800
     20 N20          3.7960     3.8930    -0.5630 nt         1 SBC      -0.593000
     21 O21          5.3520     2.3350    -0.2720 o          1 SBC      -0.603100
     22 S22         -4.8920     0.0190    -0.2510 sy         1 SBC       1.130600
     23 O23         -5.4250    -0.1280     1.1020 o          1 SBC      -0.540500
     24 O24         -5.2960    -0.8550    -1.3490 o          1 SBC      -0.540500
     25 N25         -5.4270     1.4880    -0.7140 n8         1 SBC      -1.008100
     26 H1          -2.8270    -0.3590    -2.2970 ha         1 SBC       0.143000
     27 H2          -0.3650    -0.0680    -2.2430 ha         1 SBC       0.140000
     28 H4          -0.5810     1.1560     1.8940 ha         1 SBC       0.140000
     29 H5          -3.0450     0.8710     1.8600 ha         1 SBC       0.143000
     30 H13          5.3640    -0.2130     0.1330 ha         1 SBC       0.148000
     31 H14          5.0190    -2.6850     0.5200 ha         1 SBC       0.126000
     32 H16         -0.4510    -2.3250     0.3130 h4         1 SBC       0.053800
     33 H17          2.9200    -4.6270     0.7760 hn         1 SBC       0.380000
     34 H201         4.5070     4.6040    -0.6540 hn         1 SBC       0.325000
     35 H202         2.8160     4.1280    -0.6290 hn         1 SBC       0.325000
     36 H251        -6.0260     1.2250    -1.4940 hn         1 SBC       0.476000
     37 H252        -6.1050     1.6750     0.0210 hn         1 SBC       0.476000
@<TRIPOS>BOND
     1     1     2 ar  
     2     1     6 ar  
     3     1    26 1   
     4     2     3 ar  
     5     2    27 1   
     6     3     4 ar  
     7     3     7 1   
     8     4     5 ar  
     9     4    28 1   
    10     5     6 ar  
    11     5    29 1   
    12     6    22 1   
    13     7     8 1   
    14     7    11 1   
    15     8     9 ar  
    16     8    12 ar  
    17     9    10 1   
    18     9    13 ar  
    19    10    11 2   
    20    10    19 1   
    21    12    15 ar  
    22    12    16 1   
    23    13    14 ar  
    24    13    30 1   
    25    14    15 ar  
    26    14    31 1   
    27    15    17 1   
    28    16    18 2   
    29    16    32 1   
    30    17    18 1   
    31    17    33 1   
    32    19    20 1   
    33    19    21 2   
    34    20    34 1   
    35    20    35 1   
    36    22    23 2   
    37    22    24 2   
    38    22    25 1   
    39    25    36 1   
    40    25    37 1   
@<TRIPOS>SUBSTRUCTURE
     1 SBC         1 TEMP              0 ****  ****    0 ROOT
