@<TRIPOS>MOLECULE
SBC
   37    40     1     0     0
SMALL
abcg2


@<TRIPOS>ATOM
      1 C1          -2.4170    -0.4790    -0.8810 ca         1 SBC      -0.000500
      2 C2          -1.0320    -0.4170    -0.8850 ca         1 SBC      -0.130500
      3 C3          -0.3830     0.4770    -0.0460 ca         1 SBC       0.076800
      4 C4          -1.1040     1.3390     0.7750 ca         1 SBC      -0.130500
      5 C5          -2.4850     1.2940     0.7620 ca         1 SBC      -0.000500
      6 C6          -3.1300     0.3790    -0.0600 ca         1 SBC      -0.271500
      7 N7           1.0230     0.5410    -0.0390 na         1 SBC       0.186800
      8 C8           1.9280    -0.4770    -0.0090 ca         1 SBC       0.028800
      9 C9           3.1930     0.1190    -0.0560 ca         1 SBC      -0.220900
     10 C10          2.9130     1.5120    -0.0970 cc         1 SBC       0.320900
     11 N11          1.6210     1.7320    -0.0820 nd         1 SBC      -0.528100
     12 C12          1.8000    -1.8770     0.1130 ca         1 SBC      -0.248900
     13 C13          4.3780    -0.6600    -0.0290 ca         1 SBC       0.008000
     14 C14          4.2900    -2.0190     0.0620 ca         1 SBC      -0.156000
     15 C15          3.0030    -2.6010     0.1400 ca         1 SBC      -0.017200
     16 C16          0.7930    -2.8620     0.2530 cc         1 SBC       0.366800
     17 N17          2.6440    -3.8930     0.2770 na         1 SBC      -0.041400
     18 N18          1.3260    -4.0570     0.3470 nd         1 SBC      -0.523100
     19 C19          3.8840     2.6320    -0.1520 c          1 SBC       0.557800
     20 N20          3.3450     3.8560    -0.1590 nt         1 SBC      -0.593000
     21 O21          5.0860     2.4080    -0.1840 o          1 SBC      -0.603100
     22 S22         -4.9010     0.3210    -0.0530 sy         1 SBC       1.130600
     23 O23         -5.3860     0.6470     1.2800 o          1 SBC      -0.540500
     24 O24         -5.3040    -0.9430    -0.6510 o          1 SBC      -0.540500
     25 N25         -5.2590     1.6260    -0.9950 n8         1 SBC      -1.008100
     26 H1          -2.9190    -1.1820    -1.5300 ha         1 SBC       0.143000
     27 H2          -0.4700    -1.0520    -1.5570 ha         1 SBC       0.140000
     28 H4          -0.5900     2.0350     1.4230 ha         1 SBC       0.140000
     29 H5          -3.0450     1.9620     1.4020 ha         1 SBC       0.143000
     30 H13          5.3420    -0.1770    -0.0770 ha         1 SBC       0.148000
     31 H14          5.1760    -2.6380     0.0890 ha         1 SBC       0.126000
     32 H16         -0.2780    -2.7420     0.2970 h4         1 SBC       0.053800
     33 H17          3.2510    -4.6960     0.3290 hn         1 SBC       0.380000
     34 H201         3.9340     4.6710    -0.1980 hn         1 SBC       0.325000
     35 H202         2.3480     3.9920    -0.1330 hn         1 SBC       0.325000
     36 H251        -5.0860     1.4640    -1.9820 hn         1 SBC       0.476000
     37 H252        -6.2130     1.9440    -0.8500 hn         1 SBC       0.476000
@<TRIPOS>BOND
     1     1     2 ar  
     2     1     6 ar  
     3     1    26 1   
     4     2     3 ar  
     5     2    27 1   
     6     3     4 ar  
     7     3     7 1   
     8     4     5 ar  
     9     4    28 1   
    10     5     6 ar  
    11     5    29 1   
    12     6    22 1   
    13     7     8 1   
    14     7    11 1   
    15     8     9 ar  
    16     8    12 ar  
    17     9    10 1   
    18     9    13 ar  
    19    10    11 2   
    20    10    19 1   
    21    12    15 ar  
    22    12    16 1   
    23    13    14 ar  
    24    13    30 1   
    25    14    15 ar  
    26    14    31 1   
    27    15    17 1   
    28    16    18 2   
    29    16    32 1   
    30    17    18 1   
    31    17    33 1   
    32    19    20 1   
    33    19    21 2   
    34    20    34 1   
    35    20    35 1   
    36    22    23 2   
    37    22    24 2   
    38    22    25 1   
    39    25    36 1   
    40    25    37 1   
@<TRIPOS>SUBSTRUCTURE
     1 SBC         1 TEMP              0 ****  ****    0 ROOT
