@<TRIPOS>MOLECULE
SBF
   86    90     1     0     0
SMALL
abcg2


@<TRIPOS>ATOM
      1 C1         -12.1070    -0.0660     0.4260 c6         1 SBF      -0.068400
      2 C2         -11.4660    -1.4170     0.7460 c6         1 SBF      -0.058367
      3 C3         -11.1250    -2.1430    -0.5570 c6         1 SBF      -0.068400
      4 C4         -10.1850    -1.1940     1.5490 c6         1 SBF      -0.065400
      5 C5         -11.1250     0.7820    -0.3840 c6         1 SBF      -0.058367
      6 C6         -10.7830     0.0610    -1.6890 c6         1 SBF      -0.068400
      7 C7          -9.8430     1.0030     0.4250 c6         1 SBF      -0.065400
      8 C8         -10.1470    -1.2940    -1.3690 c6         1 SBF      -0.058367
      9 C9          -9.1810    -0.3430     0.7560 c6         1 SBF      -0.036000
     10 C10         -8.8660    -1.0670    -0.5610 c6         1 SBF      -0.065400
     11 C11          7.7420    -2.6010    -1.7200 ca         1 SBF      -0.173000
     12 C12          7.3190    -1.4570    -2.4150 ca         1 SBF      -0.056000
     13 C13          7.1390    -0.2590    -1.7820 ca         1 SBF      -0.156000
     14 C14          7.9710    -2.5510    -0.3650 ca         1 SBF       0.293000
     15 C15          7.7030    -1.3310     0.3370 ca         1 SBF      -0.067000
     16 C16          7.3170    -0.1620    -0.3810 ca         1 SBF       0.060000
     17 C17          7.0950     1.0260     0.3770 ca         1 SBF      -0.304500
     18 C18          7.2040     1.0430     1.7430 ca         1 SBF       0.014000
     19 C19          7.5320    -0.1320     2.4370 ca         1 SBF      -0.154000
     20 C20          7.7690    -1.2870     1.7480 ca         1 SBF      -0.026000
     21 C22          8.1540    -4.9610    -0.1900 c3         1 SBF       0.171100
     22 C23          9.8030    -3.5540     0.8390 c3         1 SBF       0.171100
     23 N25         -5.8430    -0.2430     0.4030 ns         1 SBF      -0.509900
     24 C26         -4.7150     0.2300    -0.3670 c3         1 SBF       0.103000
     25 C27         -3.4470     0.4280     0.4560 c3         1 SBF      -0.098400
     26 C28         -2.2710     0.8350    -0.4230 c3         1 SBF      -0.073400
     27 C29         -0.9630     0.9920     0.3430 c3         1 SBF      -0.073400
     28 C30          0.2020     1.3740    -0.5620 c3         1 SBF      -0.075400
     29 C31          1.5310     1.4850     0.1740 c3         1 SBF      -0.075400
     30 C32          2.6750     1.8760    -0.7530 c3         1 SBF      -0.080400
     31 C33          4.0090     1.9210    -0.0280 c3         1 SBF       0.199800
     32 N34          5.0620     2.3030    -0.9690 n7         1 SBF      -0.864300
     33 S36          6.5870     2.5460    -0.4010 sy         1 SBF       1.145600
     34 O37          7.4260     2.8060    -1.5600 o          1 SBF      -0.534500
     35 O38         -6.7330     1.7770     0.8640 o          1 SBF      -0.606100
     36 C39         -7.9200    -0.1720     1.6250 c3         1 SBF      -0.152400
     37 H1         -13.0360    -0.2110    -0.1360 hc         1 SBF       0.039700
     38 H1A        -12.3770     0.4520     1.3520 hc         1 SBF       0.039700
     39 H2         -12.1600    -2.0250     1.3370 hc         1 SBF       0.049367
     40 H3         -10.6830    -3.1200    -0.3380 hc         1 SBF       0.039700
     41 H3A        -12.0370    -2.3310    -1.1340 hc         1 SBF       0.039700
     42 H4         -10.4180    -0.6980     2.4980 hc         1 SBF       0.042867
     43 H4A         -9.7280    -2.1570     1.8030 hc         1 SBF       0.042867
     44 H5         -11.5770     1.7530    -0.6100 hc         1 SBF       0.049367
     45 H6         -11.6830    -0.0730    -2.2970 hc         1 SBF       0.039700
     46 H6A        -10.0880     0.6670    -2.2800 hc         1 SBF       0.039700
     47 H7          -9.1540     1.6320    -0.1460 hc         1 SBF       0.042867
     48 H7A        -10.0730     1.5410     1.3510 hc         1 SBF       0.042867
     49 H8          -9.8950    -1.8110    -2.3000 hc         1 SBF       0.049367
     50 H10         -8.3790    -2.0270    -0.3540 hc         1 SBF       0.042867
     51 H10A        -8.1650    -0.4760    -1.1610 hc         1 SBF       0.042867
     52 H11          7.9150    -3.5120    -2.2750 ha         1 SBF       0.119000
     53 H12          7.1680    -1.5210    -3.4850 ha         1 SBF       0.117000
     54 H13          6.8770     0.6000    -2.3790 ha         1 SBF       0.124000
     55 H18          7.0200     1.9490     2.3010 ha         1 SBF       0.144000
     56 H19          7.5770    -0.1170     3.5170 ha         1 SBF       0.122000
     57 H20          7.9860    -2.1970     2.2910 ha         1 SBF       0.131000
     58 H22          8.7710    -5.2110    -1.0630 h1         1 SBF       0.037533
     59 H22A         8.3500    -5.7140     0.5740 h1         1 SBF       0.037533
     60 H22B         7.1060    -5.0400    -0.4760 h1         1 SBF       0.037533
     61 H23         10.0080    -2.5710     1.2570 h1         1 SBF       0.037533
     62 H23A         9.9760    -4.2930     1.6210 h1         1 SBF       0.037533
     63 H23B        10.5260    -3.7340     0.0320 h1         1 SBF       0.037533
     64 HN25        -5.9320    -1.2380     0.5290 hn         1 SBF       0.309500
     65 H26         -4.5270    -0.5000    -1.1570 h1         1 SBF       0.051700
     66 H26A        -4.9930     1.1630    -0.8570 h1         1 SBF       0.051700
     67 H27         -3.6240     1.1880     1.2230 hc         1 SBF       0.047700
     68 H27A        -3.2090    -0.5020     0.9810 hc         1 SBF       0.047700
     69 H28         -2.1370     0.0850    -1.2110 hc         1 SBF       0.038700
     70 H28A        -2.5080     1.7740    -0.9350 hc         1 SBF       0.038700
     71 H29         -1.0830     1.7480     1.1250 hc         1 SBF       0.039700
     72 H29A        -0.7300     0.0530     0.8580 hc         1 SBF       0.039700
     73 H30          0.2950     0.6310    -1.3620 hc         1 SBF       0.039700
     74 H30A        -0.0220     2.3250    -1.0560 hc         1 SBF       0.039700
     75 H31          1.4450     2.2210     0.9800 hc         1 SBF       0.041200
     76 H31A         1.7620     0.5280     0.6540 hc         1 SBF       0.041200
     77 H32          2.7350     1.1580    -1.5770 hc         1 SBF       0.050200
     78 H32A         2.4730     2.8530    -1.2000 hc         1 SBF       0.050200
     79 H33          3.9740     2.6630     0.7710 h1         1 SBF       0.053200
     80 H33A         4.2150     0.9480     0.4330 h1         1 SBF       0.053200
     81 HN34         5.0560     1.7580    -1.8250 hn         1 SBF       0.478000
     82 H39         -8.1870     0.3850     2.5270 hc         1 SBF       0.059200
     83 H39A        -7.5920    -1.1630     1.9500 hc         1 SBF       0.059200
     84 C24         -6.7820     0.5540     0.9410 c          1 SBF       0.602100
     85 N21          8.4280    -3.6540     0.3670 nh         1 SBF      -0.782400
     86 O35          6.4940     3.5570     0.6390 o          1 SBF      -0.534500
@<TRIPOS>BOND
     1     1     2 1   
     2     1     5 1   
     3     1    37 1   
     4     1    38 1   
     5     2     3 1   
     6     2     4 1   
     7     2    39 1   
     8     3     8 1   
     9     3    40 1   
    10     3    41 1   
    11     4     9 1   
    12     4    42 1   
    13     4    43 1   
    14     5     6 1   
    15     5     7 1   
    16     5    44 1   
    17     6     8 1   
    18     6    45 1   
    19     6    46 1   
    20     7     9 1   
    21     7    47 1   
    22     7    48 1   
    23     8    10 1   
    24     8    49 1   
    25     9    10 1   
    26     9    36 1   
    27    10    50 1   
    28    10    51 1   
    29    11    12 ar  
    30    11    14 ar  
    31    11    52 1   
    32    12    13 ar  
    33    12    53 1   
    34    13    16 ar  
    35    13    54 1   
    36    14    15 ar  
    37    14    85 1   
    38    15    16 ar  
    39    15    20 ar  
    40    16    17 ar  
    41    17    18 ar  
    42    17    33 1   
    43    18    19 ar  
    44    18    55 1   
    45    19    20 ar  
    46    19    56 1   
    47    20    57 1   
    48    21    58 1   
    49    21    59 1   
    50    21    60 1   
    51    21    85 1   
    52    22    61 1   
    53    22    62 1   
    54    22    63 1   
    55    22    85 1   
    56    23    24 1   
    57    23    64 1   
    58    23    84 1   
    59    24    25 1   
    60    24    65 1   
    61    24    66 1   
    62    25    26 1   
    63    25    67 1   
    64    25    68 1   
    65    26    27 1   
    66    26    69 1   
    67    26    70 1   
    68    27    28 1   
    69    27    71 1   
    70    27    72 1   
    71    28    29 1   
    72    28    73 1   
    73    28    74 1   
    74    29    30 1   
    75    29    75 1   
    76    29    76 1   
    77    30    31 1   
    78    30    77 1   
    79    30    78 1   
    80    31    32 1   
    81    31    79 1   
    82    31    80 1   
    83    32    33 1   
    84    32    81 1   
    85    33    34 2   
    86    33    86 2   
    87    35    84 2   
    88    36    82 1   
    89    36    83 1   
    90    36    84 1   
@<TRIPOS>SUBSTRUCTURE
     1 SBF         1 TEMP              0 ****  ****    0 ROOT
