@<TRIPOS>MOLECULE
SBF
   86    90     1     0     0
SMALL
No Charge or Current Charge


@<TRIPOS>ATOM
      1 C1         -12.4520     0.9420    -1.1410 c6         1 SBF      -0.068400
      2 C2         -12.3470     0.3090     0.2760 c6         1 SBF      -0.058367
      3 C3         -12.2510    -1.2380     0.1470 c6         1 SBF      -0.068400
      4 C4         -11.0720     0.8460     0.9860 c6         1 SBF      -0.065400
      5 C5         -11.1930     0.5680    -1.9730 c6         1 SBF      -0.058367
      6 C6         -11.0980    -0.9800    -2.1000 c6         1 SBF      -0.068400
      7 C7          -9.9190     1.1060    -1.2580 c6         1 SBF      -0.065400
      8 C8         -10.9920    -1.6150    -0.6840 c6         1 SBF      -0.058367
      9 C9          -9.7850     0.4830     0.1720 c6         1 SBF      -0.036000
     10 C10         -9.7190    -1.0760     0.0300 c6         1 SBF      -0.065400
     11 C11          8.5140    -1.4580    -2.5830 ca         1 SBF      -0.173000
     12 C12          7.4910    -0.5070    -2.5360 ca         1 SBF      -0.056000
     13 C13          7.1570     0.1050    -1.3210 ca         1 SBF      -0.156000
     14 C14          9.2120    -1.8130    -1.4200 ca         1 SBF       0.293000
     15 C15          8.8700    -1.2040    -0.1810 ca         1 SBF      -0.067000
     16 C16          7.8380    -0.2230    -0.1230 ca         1 SBF       0.060000
     17 C17          7.5150     0.3840     1.1300 ca         1 SBF      -0.304500
     18 C18          8.2100    -0.0130     2.2930 ca         1 SBF       0.014000
     19 C19          9.2100    -0.9890     2.2280 ca         1 SBF      -0.154000
     20 C20          9.5400    -1.5800     1.0040 ca         1 SBF      -0.026000
     21 C22          9.9800    -4.1050    -2.1070 c3         1 SBF       0.171100
     22 C23         11.6630    -2.3410    -1.4720 c3         1 SBF       0.171100
     23 N25         -6.4830    -0.3280     0.9140 ns         1 SBF      -0.509900
     24 C26         -5.1600    -0.8110     0.5130 c3         1 SBF       0.103000
     25 C27         -4.0290     0.1100     1.0140 c3         1 SBF      -0.098400
     26 C28         -2.6250    -0.3960     0.6200 c3         1 SBF      -0.073400
     27 C29         -1.4890     0.5230     1.1200 c3         1 SBF      -0.073400
     28 C30         -0.0840     0.0170     0.7270 c3         1 SBF      -0.075400
     29 C31          1.0510     0.9360     1.2270 c3         1 SBF      -0.075400
     30 C32          2.4570     0.4300     0.8330 c3         1 SBF      -0.080400
     31 C33          3.5890     1.3500     1.3320 c3         1 SBF       0.199800
     32 N34          4.8880     0.8130     0.9050 n7         1 SBF      -0.864300
     33 S36          6.2550     1.6680     1.3320 sy         1 SBF       1.145600
     34 O37          6.4300     2.6920     0.2980 o          1 SBF      -0.534500
     35 O38         -6.7210     1.2840    -0.6770 o          1 SBF      -0.606100
     36 C39         -8.5280     1.0350     0.9270 c3         1 SBF      -0.152400
     37 H1         -13.3610     0.5900    -1.6480 hc         1 SBF       0.039700
     38 H1A        -12.5440     2.0340    -1.0620 hc         1 SBF       0.039700
     39 H2         -13.2360     0.5750     0.8640 hc         1 SBF       0.049367
     40 H3         -12.2010    -1.6990     1.1430 hc         1 SBF       0.039700
     41 H3A        -13.1560    -1.6360    -0.3330 hc         1 SBF       0.039700
     42 H4         -11.1480     1.9360     1.1100 hc         1 SBF       0.042867
     43 H4A        -11.0120     0.4280     2.0010 hc         1 SBF       0.042867
     44 H5         -11.2680     1.0140    -2.9740 hc         1 SBF       0.049367
     45 H6         -11.9790    -1.3720    -2.6270 hc         1 SBF       0.039700
     46 H6A        -10.2250    -1.2580    -2.7070 hc         1 SBF       0.039700
     47 H7          -9.0400     0.8670    -1.8700 hc         1 SBF       0.042867
     48 H7A         -9.9620     2.2020    -1.1940 hc         1 SBF       0.042867
     49 H8         -10.9270    -2.7080    -0.7760 hc         1 SBF       0.049367
     50 H10         -9.6200    -1.5440     1.0200 hc         1 SBF       0.042867
     51 H10A        -8.8290    -1.3740    -0.5410 hc         1 SBF       0.042867
     52 H11          8.7740    -1.9180    -3.5320 ha         1 SBF       0.119000
     53 H12          6.9540    -0.2410    -3.4440 ha         1 SBF       0.117000
     54 H13          6.3490     0.8270    -1.3420 ha         1 SBF       0.124000
     55 H18          7.9850     0.4310     3.2620 ha         1 SBF       0.144000
     56 H19          9.7340    -1.2880     3.1330 ha         1 SBF       0.122000
     57 H20         10.3170    -2.3400     0.9910 ha         1 SBF       0.131000
     58 H22         10.1790    -4.1090    -3.1870 h1         1 SBF       0.037533
     59 H22A        10.6130    -4.8640    -1.6290 h1         1 SBF       0.037533
     60 H22B         8.9310    -4.3890    -1.9430 h1         1 SBF       0.037533
     61 H23         11.7420    -1.3200    -1.0760 h1         1 SBF       0.037533
     62 H23A        12.2380    -3.0050    -0.8120 h1         1 SBF       0.037533
     63 H23B        12.1150    -2.3580    -2.4730 h1         1 SBF       0.037533
     64 HN25        -6.9330    -0.7610     1.7120 hn         1 SBF       0.309500
     65 H26         -5.0190    -1.8200     0.9240 h1         1 SBF       0.051700
     66 H26A        -5.1220    -0.8850    -0.5820 h1         1 SBF       0.051700
     67 H27         -4.1760     1.1180     0.6070 hc         1 SBF       0.047700
     68 H27A        -4.0920     0.1920     2.1060 hc         1 SBF       0.047700
     69 H28         -2.4780    -1.4050     1.0280 hc         1 SBF       0.038700
     70 H28A        -2.5660    -0.4810    -0.4720 hc         1 SBF       0.038700
     71 H29         -1.6360     1.5310     0.7120 hc         1 SBF       0.039700
     72 H29A        -1.5490     0.6080     2.2130 hc         1 SBF       0.039700
     73 H30          0.0630    -0.9910     1.1350 hc         1 SBF       0.039700
     74 H30A        -0.0250    -0.0680    -0.3660 hc         1 SBF       0.039700
     75 H31          0.9050     1.9440     0.8190 hc         1 SBF       0.041200
     76 H31A         0.9920     1.0210     2.3190 hc         1 SBF       0.041200
     77 H32          2.6040    -0.5780     1.2410 hc         1 SBF       0.050200
     78 H32A         2.5180     0.3480    -0.2590 hc         1 SBF       0.050200
     79 H33          3.4360     2.3570     0.9180 h1         1 SBF       0.053200
     80 H33A         3.5330     1.4250     2.4270 h1         1 SBF       0.053200
     81 HN34         5.0580    -0.0860     1.3500 hn         1 SBF       0.478000
     82 H39         -8.5980     2.1270     0.9830 hc         1 SBF       0.059200
     83 H39A        -8.5420     0.6290     1.9460 hc         1 SBF       0.059200
     84 C24         -7.1750     0.6850     0.2880 c          1 SBF       0.602100
     85 N21         10.2500    -2.7710    -1.5330 nh         1 SBF      -0.782400
     86 O35          6.1070     2.0030     2.7500 o          1 SBF      -0.534500
@<TRIPOS>BOND
     1     1     2 1   
     2     1     5 1   
     3     1    37 1   
     4     1    38 1   
     5     2     3 1   
     6     2     4 1   
     7     2    39 1   
     8     3     8 1   
     9     3    40 1   
    10     3    41 1   
    11     4     9 1   
    12     4    42 1   
    13     4    43 1   
    14     5     6 1   
    15     5     7 1   
    16     5    44 1   
    17     6     8 1   
    18     6    45 1   
    19     6    46 1   
    20     7     9 1   
    21     7    47 1   
    22     7    48 1   
    23     8    10 1   
    24     8    49 1   
    25     9    10 1   
    26     9    36 1   
    27    10    50 1   
    28    10    51 1   
    29    11    12 ar  
    30    11    14 ar  
    31    11    52 1   
    32    12    13 ar  
    33    12    53 1   
    34    13    16 ar  
    35    13    54 1   
    36    14    15 ar  
    37    14    85 1   
    38    15    16 ar  
    39    15    20 ar  
    40    16    17 ar  
    41    17    18 ar  
    42    17    33 1   
    43    18    19 ar  
    44    18    55 1   
    45    19    20 ar  
    46    19    56 1   
    47    20    57 1   
    48    21    58 1   
    49    21    59 1   
    50    21    60 1   
    51    21    85 1   
    52    22    61 1   
    53    22    62 1   
    54    22    63 1   
    55    22    85 1   
    56    23    24 1   
    57    23    64 1   
    58    23    84 1   
    59    24    25 1   
    60    24    65 1   
    61    24    66 1   
    62    25    26 1   
    63    25    67 1   
    64    25    68 1   
    65    26    27 1   
    66    26    69 1   
    67    26    70 1   
    68    27    28 1   
    69    27    71 1   
    70    27    72 1   
    71    28    29 1   
    72    28    73 1   
    73    28    74 1   
    74    29    30 1   
    75    29    75 1   
    76    29    76 1   
    77    30    31 1   
    78    30    77 1   
    79    30    78 1   
    80    31    32 1   
    81    31    79 1   
    82    31    80 1   
    83    32    33 1   
    84    32    81 1   
    85    33    34 2   
    86    33    86 2   
    87    35    84 2   
    88    36    82 1   
    89    36    83 1   
    90    36    84 1   
@<TRIPOS>SUBSTRUCTURE
     1 SBF         1 TEMP              0 ****  ****    0 ROOT
