@<TRIPOS>MOLECULE
SBG
   19    18     1     0     0
SMALL
bcc


@<TRIPOS>ATOM
      1 N            1.6690     1.8470     0.2890 n8         1 SBG      -0.894800
      2 CA           1.7000     0.4170     0.5430 c3         1 SBG       0.018500
      3 CB           0.4940    -0.3320    -0.0240 c3         1 SBG       0.167400
      4 OG          -0.6910     0.2160     0.5270 os         1 SBG      -0.607200
      5 C            2.9770    -0.2360    -0.0350 c          1 SBG       0.929600
      6 O            3.5860     0.3870    -0.9260 o          1 SBG      -0.858300
      7 O2          -2.1400     0.3740    -1.6060 o          1 SBG      -0.849500
      8 P1          -2.1370    -0.1550    -0.1950 p5         1 SBG       1.256600
      9 O1          -2.4320    -1.6170     0.0310 o          1 SBG      -0.849500
     10 C1          -3.2010     0.8730     0.8640 c3         1 SBG      -0.289300
     11 OXT          3.2650    -1.3630     0.4160 o          1 SBG      -0.858300
     12 HN1          1.9150     2.0020    -0.6810 hn         1 SBG       0.327300
     13 HN2          0.7240     2.1890     0.4090 hn         1 SBG       0.327300
     14 HA           1.7050     0.2560     1.6280 h1         1 SBG       0.041700
     15 HBC1         0.4940    -0.2360    -1.1180 h1         1 SBG       0.026700
     16 HBC2         0.5730    -1.3980     0.2140 h1         1 SBG       0.026700
     17 H1C1        -2.9640     1.9330     0.7700 hc         1 SBG       0.028700
     18 H1C2        -4.2410     0.7390     0.5640 hc         1 SBG       0.028700
     19 H1C3        -3.1220     0.5950     1.9150 hc         1 SBG       0.028700
@<TRIPOS>BOND
     1     1     2 1   
     2     1    12 1   
     3     1    13 1   
     4     2     3 1   
     5     2     5 1   
     6     2    14 1   
     7     3     4 1   
     8     3    15 1   
     9     3    16 1   
    10     4     8 1   
    11     5     6 1   
    12     5    11 1   
    13     7     8 1   
    14     8     9 1   
    15     8    10 1   
    16    10    17 1   
    17    10    18 1   
    18    10    19 1   
@<TRIPOS>SUBSTRUCTURE
     1 SBG         1 TEMP              0 ****  ****    0 ROOT
