@<TRIPOS>MOLECULE
SBG
   19    18     1     0     0
SMALL
No Charge or Current Charge


@<TRIPOS>ATOM
      1 N            1.6270     1.2630     1.3120 n8         1 SBG      -1.005200
      2 CA           1.4930     0.0640     0.3880 c3         1 SBG       0.018500
      3 CB           0.5060     0.3490    -0.7840 c3         1 SBG       0.190600
      4 OG          -0.7650     0.8230    -0.2910 os         1 SBG      -0.630400
      5 C            2.8310    -0.5170    -0.2180 c          1 SBG       0.719000
      6 O            3.5410     0.2220    -0.8900 o          1 SBG      -0.753000
      7 O2          -2.1880    -1.3190    -0.5140 o          1 SBG      -0.849500
      8 P1          -1.8370    -0.1800     0.3870 p5         1 SBG       1.414400
      9 O1          -1.4620    -0.6050     1.7690 o          1 SBG      -0.849500
     10 C1          -3.2530     0.9800     0.4700 c3         1 SBG      -0.447100
     11 OXT          3.1470    -1.6670     0.0600 o          1 SBG      -0.753000
     12 HN1          2.0910     2.0200     0.7960 hn         1 SBG       0.382500
     13 HN2          0.6810     1.6300     1.4750 hn         1 SBG       0.382500
     14 HA           1.0610    -0.7480     0.9880 h1         1 SBG       0.041700
     15 HBC1         0.9460     1.1010    -1.4510 h1         1 SBG       0.026700
     16 HBC2         0.3740    -0.5690    -1.3720 h1         1 SBG       0.026700
     17 H1C1        -3.5090     1.3250    -0.5370 hc         1 SBG       0.028700
     18 H1C2        -4.1200     0.4750     0.9090 hc         1 SBG       0.028700
     19 H1C3        -2.9890     1.8440     1.0900 hc         1 SBG       0.028700
@<TRIPOS>BOND
     1     1     2 1   
     2     1    12 1   
     3     1    13 1   
     4     2     3 1   
     5     2     5 1   
     6     2    14 1   
     7     3     4 1   
     8     3    15 1   
     9     3    16 1   
    10     4     8 1   
    11     5     6 1   
    12     5    11 1   
    13     7     8 1   
    14     8     9 1   
    15     8    10 1   
    16    10    17 1   
    17    10    18 1   
    18    10    19 1   
@<TRIPOS>SUBSTRUCTURE
     1 SBG         1 TEMP              0 ****  ****    0 ROOT
