@<TRIPOS>MOLECULE
SBI
   26    28     1     0     0
SMALL
No Charge or Current Charge


@<TRIPOS>ATOM
      1 C1          -1.5220    -0.0430     2.3640 ca         1 SBI       0.134000
      2 F1          -2.8130    -0.1380     2.7510 f          1 SBI      -0.176000
      3 C2          -0.5060    -0.0310     3.3290 ca         1 SBI      -0.102000
      4 C3           0.8360     0.0630     2.9210 ca         1 SBI      -0.122000
      5 C4           1.1580     0.1420     1.5560 ca         1 SBI       0.156100
      6 O1           2.4900     0.2360     1.2100 os         1 SBI      -0.336100
      7 C5           2.8810     0.0270    -0.1610 c6         1 SBI       0.161600
      8 C6           1.9200     0.7690    -1.1080 c6         1 SBI      -0.116400
      9 C7           0.4710     0.2550    -0.9210 c5         1 SBI       0.093700
     10 C9           0.2270    -1.1260    -1.6400 c          1 SBI       0.569000
     11 O3           0.6990    -2.2350    -1.4420 o          1 SBI      -0.493000
     12 N2          -0.6890    -0.8220    -2.5830 ns         1 SBI      -0.483500
     13 C8          -1.1210     0.4390    -2.6540 c          1 SBI       0.619000
     14 O2          -1.9370     0.8880    -3.4340 o          1 SBI      -0.536000
     15 N1          -0.4710     1.1180    -1.6700 ns         1 SBI      -0.519900
     16 C10          0.1360     0.1510     0.5730 ca         1 SBI      -0.159300
     17 C11         -1.2090     0.0470     0.9980 ca         1 SBI      -0.096000
     18 H2          -0.7560    -0.0970     4.3850 ha         1 SBI       0.137000
     19 H3           1.6300     0.0710     3.6630 ha         1 SBI       0.136000
     20 H51          3.9110     0.3880    -0.2970 h1         1 SBI       0.072200
     21 H52          2.8710    -1.0510    -0.3740 h1         1 SBI       0.072200
     22 H61          1.9670     1.8450    -0.8920 hc         1 SBI       0.069200
     23 H62          2.2410     0.6420    -2.1510 hc         1 SBI       0.069200
     24 HN2         -1.0420    -1.5250    -3.2130 hn         1 SBI       0.359500
     25 HN1         -0.6500     2.1060    -1.5320 hn         1 SBI       0.354500
     26 H11         -2.0200     0.0380     0.2730 ha         1 SBI       0.137000
@<TRIPOS>BOND
     1     1     2 1   
     2     1     3 ar  
     3     1    17 ar  
     4     3     4 ar  
     5     3    18 1   
     6     4     5 ar  
     7     4    19 1   
     8     5     6 1   
     9     5    16 ar  
    10     6     7 1   
    11     7     8 1   
    12     7    20 1   
    13     7    21 1   
    14     8     9 1   
    15     8    22 1   
    16     8    23 1   
    17     9    10 1   
    18     9    15 1   
    19     9    16 1   
    20    10    11 2   
    21    10    12 1   
    22    12    13 1   
    23    12    24 1   
    24    13    14 2   
    25    13    15 1   
    26    15    25 1   
    27    16    17 ar  
    28    17    26 1   
@<TRIPOS>SUBSTRUCTURE
     1 SBI         1 TEMP              0 ****  ****    0 ROOT
