@<TRIPOS>MOLECULE
SBI
   26    28     1     0     0
SMALL
bcc


@<TRIPOS>ATOM
      1 C1          -1.4840    -0.0110     2.3330 ca         1 SBI       0.098900
      2 F1          -2.7670    -0.0690     2.7320 f          1 SBI      -0.140900
      3 C2          -0.4810    -0.0450     3.2850 ca         1 SBI      -0.120000
      4 C3           0.8340     0.0160     2.8670 ca         1 SBI      -0.140000
      5 C4           1.1480     0.1140     1.5100 ca         1 SBI       0.156100
      6 O1           2.4570     0.1940     1.2020 os         1 SBI      -0.312900
      7 C5           2.8270     0.0310    -0.1600 c6         1 SBI       0.138400
      8 C6           1.8820     0.7550    -1.0920 c6         1 SBI      -0.116400
      9 C7           0.4410     0.2660    -0.9090 c5         1 SBI       0.093700
     10 C9           0.2300    -1.0890    -1.5990 c          1 SBI       0.711500
     11 O3           0.7630    -2.1310    -1.3110 o          1 SBI      -0.568500
     12 N2          -0.6670    -0.8740    -2.5950 ns         1 SBI      -0.617500
     13 C8          -1.1180     0.4450    -2.6420 c          1 SBI       0.828500
     14 O2          -1.9110     0.8840    -3.4420 o          1 SBI      -0.611500
     15 N1          -0.4980     1.0870    -1.6300 ns         1 SBI      -0.586900
     16 C10          0.1230     0.1530     0.5650 ca         1 SBI      -0.159300
     17 C11         -1.2020     0.0880     0.9910 ca         1 SBI      -0.114000
     18 H2          -0.7210    -0.1170     4.3380 ha         1 SBI       0.155000
     19 H3           1.6350    -0.0070     3.5950 ha         1 SBI       0.154000
     20 H51          3.8310     0.4420    -0.2510 h1         1 SBI       0.072200
     21 H52          2.8810    -1.0340    -0.3990 h1         1 SBI       0.072200
     22 H61          1.9070     1.8270    -0.8840 hc         1 SBI       0.069200
     23 H62          2.2070     0.6180    -2.1250 hc         1 SBI       0.069200
     24 HN2         -0.9980    -1.5890    -3.2270 hn         1 SBI       0.359500
     25 HN1         -0.6050     2.0760    -1.4730 hn         1 SBI       0.354500
     26 H11         -2.0110     0.1280     0.2720 ha         1 SBI       0.155000
@<TRIPOS>BOND
     1     1     2 1   
     2     1     3 ar  
     3     1    17 ar  
     4     3     4 ar  
     5     3    18 1   
     6     4     5 ar  
     7     4    19 1   
     8     5     6 1   
     9     5    16 ar  
    10     6     7 1   
    11     7     8 1   
    12     7    20 1   
    13     7    21 1   
    14     8     9 1   
    15     8    22 1   
    16     8    23 1   
    17     9    10 1   
    18     9    15 1   
    19     9    16 1   
    20    10    11 2   
    21    10    12 1   
    22    12    13 1   
    23    12    24 1   
    24    13    14 2   
    25    13    15 1   
    26    15    25 1   
    27    16    17 ar  
    28    17    26 1   
@<TRIPOS>SUBSTRUCTURE
     1 SBI         1 TEMP              0 ****  ****    0 ROOT
