@<TRIPOS>MOLECULE
SBJ
  102   101     1     0     0
SMALL
bcc


@<TRIPOS>ATOM
      1 C48         18.9950     2.9730    -1.6790 c3         1 SBJ      -0.088100
      2 C47         17.9090     1.9070    -1.7010 c3         1 SBJ      -0.075400
      3 C46         16.5790     2.4030    -1.1450 c3         1 SBJ      -0.075400
      4 C45         15.4830     1.3450    -1.1630 c3         1 SBJ      -0.074400
      5 C44         14.1530     1.8470    -0.6150 c3         1 SBJ      -0.074400
      6 C43         13.0540     0.7910    -0.6360 c3         1 SBJ      -0.074400
      7 C42         11.7230     1.2960    -0.0930 c3         1 SBJ      -0.074400
      8 C41         10.6240     0.2400    -0.1150 c3         1 SBJ      -0.074400
      9 C40          9.2910     0.7470     0.4210 c3         1 SBJ      -0.074400
     10 C39          8.1920    -0.3090     0.3990 c3         1 SBJ      -0.074400
     11 C38          6.8540     0.2010     0.9200 c3         1 SBJ      -0.074400
     12 C37          5.7560    -0.8550     0.8990 c3         1 SBJ      -0.074400
     13 C36          4.4100    -0.3340     1.3840 c3         1 SBJ      -0.074400
     14 C35          3.3120    -1.3910     1.3700 c3         1 SBJ      -0.074400
     15 C34          1.9510    -0.8410     1.7780 c3         1 SBJ      -0.075400
     16 C33          0.8550    -1.9000     1.7840 c3         1 SBJ      -0.067400
     17 C32         -0.5090    -1.2970     2.0840 c3         1 SBJ      -0.138400
     18 C31         -1.6180    -2.3120     2.1460 c          1 SBJ       0.651100
     19 O31         -1.4670    -3.4870     2.3660 o          1 SBJ      -0.563000
     20 O2          -2.8060    -1.7450     1.9540 os         1 SBJ      -0.392900
     21 C2          -3.9890    -2.5500     2.0370 c3         1 SBJ       0.136100
     22 C1          -4.2290    -3.3210     0.7490 c3         1 SBJ       0.196400
     23 O3P         -4.2870    -2.4570    -0.3590 os         1 SBJ      -0.541200
     24 P           -5.4820    -2.5990    -1.4680 p5         1 SBJ       1.396800
     25 O1P         -5.2520    -1.4890    -2.4430 o          1 SBJ      -0.819000
     26 O2P         -5.5880    -4.0200    -1.9420 o          1 SBJ      -0.819000
     27 O4P         -6.7520    -2.2720    -0.4850 os         1 SBJ      -0.594200
     28 C4          -8.0580    -2.6810    -0.8420 c3         1 SBJ       0.222400
     29 C5          -9.0460    -1.5390    -0.7120 c3         1 SBJ       0.124800
     30 N6          -8.8080    -0.4950    -1.6920 n8         1 SBJ      -0.866800
     31 C3          -5.1180    -1.6310     2.4480 c3         1 SBJ       0.154400
     32 O3          -5.2210    -0.5580     1.5210 os         1 SBJ      -0.376900
     33 C11         -6.3710     0.1000     1.4460 c          1 SBJ       0.669100
     34 O11         -7.2750    -0.0610     2.2310 o          1 SBJ      -0.591000
     35 C12         -6.3940     1.0400     0.2770 c3         1 SBJ      -0.149400
     36 C13         -7.5340     2.0420     0.3110 c3         1 SBJ      -0.053400
     37 C14         -7.5310     2.9320    -0.9250 c3         1 SBJ      -0.081400
     38 C15         -8.6770     3.9350    -0.9440 c3         1 SBJ      -0.072400
     39 C16         -8.6550     4.8480    -2.1640 c3         1 SBJ      -0.077400
     40 C17         -9.8060     5.8460    -2.1900 c3         1 SBJ      -0.075400
     41 C18         -9.7640     6.7710    -3.3990 c3         1 SBJ      -0.087100
     42 H1          18.6960     3.8510    -2.2560 hc         1 SBJ       0.030367
     43 H2          19.2040     3.3050    -0.6610 hc         1 SBJ       0.030367
     44 H3          19.9300     2.6040    -2.1040 hc         1 SBJ       0.030367
     45 H4          17.7630     1.5560    -2.7280 hc         1 SBJ       0.036200
     46 H5          18.2380     1.0340    -1.1280 hc         1 SBJ       0.036200
     47 H6          16.7260     2.7550    -0.1180 hc         1 SBJ       0.036700
     48 H7          16.2510     3.2760    -1.7190 hc         1 SBJ       0.036700
     49 H8          15.3410     0.9890    -2.1890 hc         1 SBJ       0.036700
     50 H9          15.8090     0.4730    -0.5840 hc         1 SBJ       0.036700
     51 H10         14.2940     2.2020     0.4110 hc         1 SBJ       0.036700
     52 H11         13.8280     2.7190    -1.1940 hc         1 SBJ       0.036700
     53 H12         12.9150     0.4340    -1.6620 hc         1 SBJ       0.037200
     54 H13         13.3770    -0.0800    -0.0540 hc         1 SBJ       0.037200
     55 H14         11.8620     1.6530     0.9330 hc         1 SBJ       0.036700
     56 H15         11.4010     2.1670    -0.6750 hc         1 SBJ       0.036700
     57 H16         10.4880    -0.1190    -1.1410 hc         1 SBJ       0.037200
     58 H17         10.9440    -0.6290     0.4700 hc         1 SBJ       0.037200
     59 H18          9.4250     1.1080     1.4470 hc         1 SBJ       0.036700
     60 H19          8.9710     1.6160    -0.1650 hc         1 SBJ       0.036700
     61 H20          8.0650    -0.6760    -0.6250 hc         1 SBJ       0.036700
     62 H21          8.5080    -1.1740     0.9930 hc         1 SBJ       0.036700
     63 H22          6.9790     0.5720     1.9430 hc         1 SBJ       0.036200
     64 H23          6.5380     1.0640     0.3230 hc         1 SBJ       0.036200
     65 H24          5.6470    -1.2420    -0.1200 hc         1 SBJ       0.037200
     66 H25          6.0620    -1.7090     1.5140 hc         1 SBJ       0.037200
     67 H26          4.5160     0.0640     2.3990 hc         1 SBJ       0.035700
     68 H27          4.1040     0.5120     0.7590 hc         1 SBJ       0.035700
     69 H28          3.2390    -1.8250     0.3670 hc         1 SBJ       0.039700
     70 H29          3.5910    -2.2140     2.0360 hc         1 SBJ       0.039700
     71 H30          2.0200    -0.3860     2.7720 hc         1 SBJ       0.035700
     72 H31          1.6720    -0.0320     1.0930 hc         1 SBJ       0.035700
     73 H32          0.8260    -2.4010     0.8120 hc         1 SBJ       0.053200
     74 H33          1.0940    -2.6690     2.5230 hc         1 SBJ       0.053200
     75 H34         -0.4900    -0.7830     3.0530 hc         1 SBJ       0.068700
     76 H35         -0.7610    -0.5290     1.3480 hc         1 SBJ       0.068700
     77 H36         -3.8850    -3.2890     2.8380 h1         1 SBJ       0.044700
     78 H37         -3.4240    -4.0480     0.6090 h1         1 SBJ       0.031200
     79 H38         -5.1480    -3.9000     0.8880 h1         1 SBJ       0.031200
     80 H40         -8.0980    -3.0810    -1.8610 h1         1 SBJ       0.017200
     81 H41         -8.3730    -3.4930    -0.1780 h1         1 SBJ       0.017200
     82 H42        -10.0510    -1.9840    -0.7720 h1         1 SBJ       0.021700
     83 H43         -8.9610    -1.1060     0.2870 h1         1 SBJ       0.021700
     84 H44         -9.0580    -0.8290    -2.6140 hn         1 SBJ       0.325300
     85 H45         -9.4160     0.2900    -1.5040 hn         1 SBJ       0.325300
     86 H47         -6.0410    -2.2140     2.4790 h1         1 SBJ       0.044200
     87 H48         -4.9340    -1.2390     3.4520 h1         1 SBJ       0.044200
     88 H49         -5.4290     1.5500     0.2090 hc         1 SBJ       0.103700
     89 H50         -6.4800     0.4160    -0.6200 hc         1 SBJ       0.103700
     90 H51         -8.4880     1.5120     0.3700 hc         1 SBJ       0.035700
     91 H52         -7.4680     2.6640     1.2100 hc         1 SBJ       0.035700
     92 H53         -6.5770     3.4680    -0.9870 hc         1 SBJ       0.048700
     93 H54         -7.5860     2.2980    -1.8160 hc         1 SBJ       0.048700
     94 H55         -9.6310     3.3960    -0.9100 hc         1 SBJ       0.029700
     95 H56         -8.6420     4.5450    -0.0350 hc         1 SBJ       0.029700
     96 H57         -7.7040     5.3910    -2.1920 hc         1 SBJ       0.038700
     97 H58         -8.6820     4.2400    -3.0750 hc         1 SBJ       0.038700
     98 H59        -10.7560     5.3010    -2.1780 hc         1 SBJ       0.032700
     99 H60         -9.7880     6.4420    -1.2730 hc         1 SBJ       0.032700
    100 H61         -9.7990     6.2050    -4.3320 hc         1 SBJ       0.027700
    101 H62        -10.6040     7.4650    -3.4020 hc         1 SBJ       0.027700
    102 H63         -8.8450     7.3620    -3.4090 hc         1 SBJ       0.027700
@<TRIPOS>BOND
     1     1     2 1   
     2     1    42 1   
     3     1    43 1   
     4     1    44 1   
     5     2     3 1   
     6     2    45 1   
     7     2    46 1   
     8     3     4 1   
     9     3    47 1   
    10     3    48 1   
    11     4     5 1   
    12     4    49 1   
    13     4    50 1   
    14     5     6 1   
    15     5    51 1   
    16     5    52 1   
    17     6     7 1   
    18     6    53 1   
    19     6    54 1   
    20     7     8 1   
    21     7    55 1   
    22     7    56 1   
    23     8     9 1   
    24     8    57 1   
    25     8    58 1   
    26     9    10 1   
    27     9    59 1   
    28     9    60 1   
    29    10    11 1   
    30    10    61 1   
    31    10    62 1   
    32    11    12 1   
    33    11    63 1   
    34    11    64 1   
    35    12    13 1   
    36    12    65 1   
    37    12    66 1   
    38    13    14 1   
    39    13    67 1   
    40    13    68 1   
    41    14    15 1   
    42    14    69 1   
    43    14    70 1   
    44    15    16 1   
    45    15    71 1   
    46    15    72 1   
    47    16    17 1   
    48    16    73 1   
    49    16    74 1   
    50    17    18 1   
    51    17    75 1   
    52    17    76 1   
    53    18    19 2   
    54    18    20 1   
    55    20    21 1   
    56    21    22 1   
    57    21    31 1   
    58    21    77 1   
    59    22    23 1   
    60    22    78 1   
    61    22    79 1   
    62    23    24 1   
    63    24    25 1   
    64    24    26 1   
    65    24    27 1   
    66    27    28 1   
    67    28    29 1   
    68    28    80 1   
    69    28    81 1   
    70    29    30 1   
    71    29    82 1   
    72    29    83 1   
    73    30    84 1   
    74    30    85 1   
    75    31    32 1   
    76    31    86 1   
    77    31    87 1   
    78    32    33 1   
    79    33    34 2   
    80    33    35 1   
    81    35    36 1   
    82    35    88 1   
    83    35    89 1   
    84    36    37 1   
    85    36    90 1   
    86    36    91 1   
    87    37    38 1   
    88    37    92 1   
    89    37    93 1   
    90    38    39 1   
    91    38    94 1   
    92    38    95 1   
    93    39    40 1   
    94    39    96 1   
    95    39    97 1   
    96    40    41 1   
    97    40    98 1   
    98    40    99 1   
    99    41   100 1   
   100    41   101 1   
   101    41   102 1   
@<TRIPOS>SUBSTRUCTURE
     1 SBJ         1 TEMP              0 ****  ****    0 ROOT
