@<TRIPOS>MOLECULE
SBJ
  102   101     1     0     0
SMALL
No Charge or Current Charge


@<TRIPOS>ATOM
      1 C48         17.5220     3.6130    -2.4360 c3         1 SBJ      -0.088100
      2 C47         16.1720     3.0000    -2.8540 c3         1 SBJ      -0.075400
      3 C46         15.1840     2.8520    -1.6770 c3         1 SBJ      -0.075400
      4 C45         13.8320     2.2350    -2.0950 c3         1 SBJ      -0.074400
      5 C44         12.8430     2.0910    -0.9180 c3         1 SBJ      -0.074400
      6 C43         11.4920     1.4700    -1.3350 c3         1 SBJ      -0.074400
      7 C42         10.5020     1.3280    -0.1580 c3         1 SBJ      -0.074400
      8 C41          9.1540     0.7010    -0.5740 c3         1 SBJ      -0.074400
      9 C40          8.1640     0.5570     0.6030 c3         1 SBJ      -0.074400
     10 C39          6.8200    -0.0790     0.1880 c3         1 SBJ      -0.074400
     11 C38          5.8350    -0.2320     1.3680 c3         1 SBJ      -0.074400
     12 C37          4.4940    -0.8800     0.9570 c3         1 SBJ      -0.074400
     13 C36          3.5140    -1.0460     2.1390 c3         1 SBJ      -0.074400
     14 C35          2.1780    -1.7030     1.7290 c3         1 SBJ      -0.074400
     15 C34          1.2050    -1.8870     2.9150 c3         1 SBJ      -0.075400
     16 C33         -0.1270    -2.5520     2.5050 c3         1 SBJ      -0.067400
     17 C32         -1.0960    -2.7510     3.6940 c3         1 SBJ      -0.138400
     18 C31         -2.4040    -3.4000     3.2340 c          1 SBJ       0.602100
     19 O31         -2.5540    -4.6100     3.1170 o          1 SBJ      -0.514000
     20 O2          -3.3820    -2.4670     3.0160 os         1 SBJ      -0.416100
     21 C2          -4.6700    -2.8910     2.4990 c3         1 SBJ       0.159300
     22 C1          -4.5450    -3.3700     1.0160 c3         1 SBJ       0.219600
     23 O3P         -3.9870    -2.3400     0.1850 os         1 SBJ      -0.564400
     24 P           -4.5030    -2.1360    -1.3280 p5         1 SBJ       1.396800
     25 O1P         -3.4590    -1.4420    -2.1380 o          1 SBJ      -0.819000
     26 O2P         -4.9090    -3.4240    -1.9600 o          1 SBJ      -0.819000
     27 O4P         -5.7410    -1.1360    -1.0600 os         1 SBJ      -0.617400
     28 C4          -7.0790    -1.5520    -0.7320 c3         1 SBJ       0.245600
     29 C5          -7.8830    -1.9130    -2.0240 c3         1 SBJ       0.124800
     30 N6          -7.6550    -3.2800    -2.5530 n8         1 SBJ      -0.977200
     31 C3          -5.6990    -1.7540     2.7460 c3         1 SBJ       0.177600
     32 O3          -5.2580    -0.5280     2.1290 os         1 SBJ      -0.400100
     33 C11         -6.0360     0.5860     2.2890 c          1 SBJ       0.620100
     34 O11         -7.0600     0.6230     2.9580 o          1 SBJ      -0.542000
     35 C12         -5.4030     1.8220     1.6500 c3         1 SBJ      -0.149400
     36 C13         -6.1580     2.2590     0.3730 c3         1 SBJ      -0.053400
     37 C14         -5.5500     3.5140    -0.2900 c3         1 SBJ      -0.081400
     38 C15         -6.3100     3.9500    -1.5620 c3         1 SBJ      -0.072400
     39 C16         -5.7030     5.2040    -2.2290 c3         1 SBJ      -0.077400
     40 C17         -6.4660     5.6430    -3.4980 c3         1 SBJ      -0.075400
     41 C18         -5.8600     6.8930    -4.1650 c3         1 SBJ      -0.087100
     42 H1          17.3790     4.6140    -2.0130 hc         1 SBJ       0.030367
     43 H2          18.0170     2.9850    -1.6850 hc         1 SBJ       0.030367
     44 H3          18.1880     3.6990    -3.3030 hc         1 SBJ       0.030367
     45 H4          15.7210     3.6290    -3.6320 hc         1 SBJ       0.036200
     46 H5          16.3520     2.0150    -3.3040 hc         1 SBJ       0.036200
     47 H6          15.6410     2.2260    -0.9000 hc         1 SBJ       0.036700
     48 H7          15.0070     3.8390    -1.2300 hc         1 SBJ       0.036700
     49 H8          13.3760     2.8610    -2.8730 hc         1 SBJ       0.036700
     50 H9          14.0090     1.2480    -2.5400 hc         1 SBJ       0.036700
     51 H10         13.3000     1.4670    -0.1390 hc         1 SBJ       0.036700
     52 H11         12.6640     3.0780    -0.4740 hc         1 SBJ       0.036700
     53 H12         11.0360     2.0920    -2.1160 hc         1 SBJ       0.037200
     54 H13         11.6710     0.4810    -1.7760 hc         1 SBJ       0.037200
     55 H14         10.9600     0.7110     0.6250 hc         1 SBJ       0.036700
     56 H15         10.3190     2.3180     0.2800 hc         1 SBJ       0.036700
     57 H16          8.6950     1.3190    -1.3570 hc         1 SBJ       0.037200
     58 H17          9.3380    -0.2880    -1.0130 hc         1 SBJ       0.037200
     59 H18          8.6260    -0.0560     1.3870 hc         1 SBJ       0.036700
     60 H19          7.9760     1.5460     1.0380 hc         1 SBJ       0.036700
     61 H20          6.3550     0.5360    -0.5920 hc         1 SBJ       0.036700
     62 H21          7.0090    -1.0660    -0.2520 hc         1 SBJ       0.036700
     63 H22          6.3030    -0.8420     2.1510 hc         1 SBJ       0.036200
     64 H23          5.6390     0.7560     1.8050 hc         1 SBJ       0.036200
     65 H24          4.0210    -0.2660     0.1800 hc         1 SBJ       0.037200
     66 H25          4.6920    -1.8630     0.5130 hc         1 SBJ       0.037200
     67 H26          3.9910    -1.6540     2.9180 hc         1 SBJ       0.035700
     68 H27          3.3110    -0.0620     2.5800 hc         1 SBJ       0.035700
     69 H28          1.6960    -1.0890     0.9580 hc         1 SBJ       0.039700
     70 H29          2.3830    -2.6820     1.2770 hc         1 SBJ       0.039700
     71 H30          1.6900    -2.4970     3.6870 hc         1 SBJ       0.035700
     72 H31          0.9970    -0.9080     3.3640 hc         1 SBJ       0.035700
     73 H32         -0.6180    -1.9370     1.7390 hc         1 SBJ       0.053200
     74 H33          0.0830    -3.5260     2.0450 hc         1 SBJ       0.053200
     75 H34         -0.6190    -3.3920     4.4440 hc         1 SBJ       0.068700
     76 H35         -1.3140    -1.7610     4.1110 hc         1 SBJ       0.068700
     77 H36         -5.0280    -3.7500     3.0810 h1         1 SBJ       0.044700
     78 H37         -3.9100    -4.2640     0.9710 h1         1 SBJ       0.031200
     79 H38         -5.5380    -3.6770     0.6650 h1         1 SBJ       0.031200
     80 H40         -7.0840    -2.4010    -0.0390 h1         1 SBJ       0.017200
     81 H41         -7.5940    -0.7230    -0.2300 h1         1 SBJ       0.017200
     82 H42         -8.9570    -1.8130    -1.8140 h1         1 SBJ       0.021700
     83 H43         -7.6300    -1.1900    -2.8120 h1         1 SBJ       0.021700
     84 H44         -6.6310    -3.4400    -2.5480 hn         1 SBJ       0.380500
     85 H45         -7.9920    -3.9640    -1.8680 hn         1 SBJ       0.380500
     86 H47         -6.6750    -2.0590     2.3460 h1         1 SBJ       0.044200
     87 H48         -5.8100    -1.6170     3.8290 h1         1 SBJ       0.044200
     88 H49         -5.4300     2.6400     2.3780 hc         1 SBJ       0.103700
     89 H50         -4.3670     1.5930     1.3750 hc         1 SBJ       0.103700
     90 H51         -6.1540     1.4350    -0.3500 hc         1 SBJ       0.035700
     91 H52         -7.2080     2.4570     0.6250 hc         1 SBJ       0.035700
     92 H53         -5.5510     4.3400     0.4320 hc         1 SBJ       0.048700
     93 H54         -4.5030     3.3130    -0.5480 hc         1 SBJ       0.048700
     94 H55         -6.3100     3.1240    -2.2830 hc         1 SBJ       0.029700
     95 H56         -7.3580     4.1510    -1.3040 hc         1 SBJ       0.029700
     96 H57         -5.7000     6.0310    -1.5070 hc         1 SBJ       0.038700
     97 H58         -4.6570     5.0020    -2.4900 hc         1 SBJ       0.038700
     98 H59         -6.4700     4.8190    -4.2230 hc         1 SBJ       0.032700
     99 H60         -7.5120     5.8480    -3.2410 hc         1 SBJ       0.032700
    100 H61         -4.8230     6.7060    -4.4680 hc         1 SBJ       0.027700
    101 H62         -6.4350     7.1660    -5.0570 hc         1 SBJ       0.027700
    102 H63         -5.8720     7.7450    -3.4740 hc         1 SBJ       0.027700
@<TRIPOS>BOND
     1     1     2 1   
     2     1    42 1   
     3     1    43 1   
     4     1    44 1   
     5     2     3 1   
     6     2    45 1   
     7     2    46 1   
     8     3     4 1   
     9     3    47 1   
    10     3    48 1   
    11     4     5 1   
    12     4    49 1   
    13     4    50 1   
    14     5     6 1   
    15     5    51 1   
    16     5    52 1   
    17     6     7 1   
    18     6    53 1   
    19     6    54 1   
    20     7     8 1   
    21     7    55 1   
    22     7    56 1   
    23     8     9 1   
    24     8    57 1   
    25     8    58 1   
    26     9    10 1   
    27     9    59 1   
    28     9    60 1   
    29    10    11 1   
    30    10    61 1   
    31    10    62 1   
    32    11    12 1   
    33    11    63 1   
    34    11    64 1   
    35    12    13 1   
    36    12    65 1   
    37    12    66 1   
    38    13    14 1   
    39    13    67 1   
    40    13    68 1   
    41    14    15 1   
    42    14    69 1   
    43    14    70 1   
    44    15    16 1   
    45    15    71 1   
    46    15    72 1   
    47    16    17 1   
    48    16    73 1   
    49    16    74 1   
    50    17    18 1   
    51    17    75 1   
    52    17    76 1   
    53    18    19 2   
    54    18    20 1   
    55    20    21 1   
    56    21    22 1   
    57    21    31 1   
    58    21    77 1   
    59    22    23 1   
    60    22    78 1   
    61    22    79 1   
    62    23    24 1   
    63    24    25 1   
    64    24    26 1   
    65    24    27 1   
    66    27    28 1   
    67    28    29 1   
    68    28    80 1   
    69    28    81 1   
    70    29    30 1   
    71    29    82 1   
    72    29    83 1   
    73    30    84 1   
    74    30    85 1   
    75    31    32 1   
    76    31    86 1   
    77    31    87 1   
    78    32    33 1   
    79    33    34 2   
    80    33    35 1   
    81    35    36 1   
    82    35    88 1   
    83    35    89 1   
    84    36    37 1   
    85    36    90 1   
    86    36    91 1   
    87    37    38 1   
    88    37    92 1   
    89    37    93 1   
    90    38    39 1   
    91    38    94 1   
    92    38    95 1   
    93    39    40 1   
    94    39    96 1   
    95    39    97 1   
    96    40    41 1   
    97    40    98 1   
    98    40    99 1   
    99    41   100 1   
   100    41   101 1   
   101    41   102 1   
@<TRIPOS>SUBSTRUCTURE
     1 SBJ         1 TEMP              0 ****  ****    0 ROOT
