@<TRIPOS>MOLECULE
SBK
   17    17     1     0     0
SMALL
bcc


@<TRIPOS>ATOM
      1 C01         -1.5540    -1.4990     0.0230 ca         1 SBK      -0.054000
      2 C02         -0.1800    -1.4690     0.0150 ca         1 SBK      -0.142900
      3 C03          0.4730    -0.2240    -0.0170 ca         1 SBK       0.710600
      4 N04         -0.2150     0.8970    -0.0400 nb         1 SBK      -0.761000
      5 C05         -1.5290     0.8720    -0.0340 ca         1 SBK       0.574300
      6 C06         -2.2610    -0.3000    -0.0010 ca         1 SBK      -0.167900
      7 CL6         -3.9770    -0.3100     0.0100 cl         1 SBK      -0.100400
      8 CL5         -2.3290     2.3970    -0.0680 cl         1 SBK      -0.166000
      9 O09          1.7870    -0.2130    -0.0220 os         1 SBK      -0.355100
     10 C10          2.4550     1.0510    -0.0300 c3         1 SBK      -0.016600
     11 C11          3.9780     0.8520    -0.0460 c          1 SBK       0.937600
     12 O12          4.6080     1.9240     0.0290 o          1 SBK      -0.811300
     13 O13          4.4270    -0.2990    -0.1340 o          1 SBK      -0.811300
     14 CL2          0.7390    -2.9190     0.0450 cl         1 SBK      -0.064400
     15 H011        -2.0820    -2.4420     0.0500 ha         1 SBK       0.151000
     16 H101         2.1530     1.6270    -0.9100 h1         1 SBK       0.039200
     17 H102         2.1650     1.6300     0.8500 h1         1 SBK       0.039200
@<TRIPOS>BOND
     1     1     2 ar  
     2     1     6 ar  
     3     1    15 1   
     4     2     3 ar  
     5     2    14 1   
     6     3     4 ar  
     7     3     9 1   
     8     4     5 ar  
     9     5     6 ar  
    10     5     8 1   
    11     6     7 1   
    12     9    10 1   
    13    10    11 1   
    14    10    16 1   
    15    10    17 1   
    16    11    12 1   
    17    11    13 1   
@<TRIPOS>SUBSTRUCTURE
     1 SBK         1 TEMP              0 ****  ****    0 ROOT
