@<TRIPOS>MOLECULE
SBK
   17    17     1     0     0
SMALL
No Charge or Current Charge


@<TRIPOS>ATOM
      1 C01         -1.6220    -1.5420     0.0140 ca         1 SBK      -0.036000
      2 C02         -0.2190    -1.4830     0.0080 ca         1 SBK       0.014000
      3 C03          0.4210    -0.2180    -0.0120 ca         1 SBK       0.645300
      4 N04         -0.2690     0.9500    -0.0250 nb         1 SBK      -0.761000
      5 C05         -1.6190     0.8790    -0.0190 ca         1 SBK       0.509000
      6 C06         -2.3400    -0.3360     0.0000 ca         1 SBK      -0.011000
      7 Cl6         -4.1070    -0.3760     0.0070 cl         1 SBK      -0.192000
      8 Cl5         -2.4500     2.4320    -0.0380 cl         1 SBK      -0.166000
      9 O09          1.8010    -0.1830    -0.0180 os         1 SBK      -0.378300
     10 C10          2.5350     1.0720    -0.0380 c3         1 SBK       0.006600
     11 C11          4.0810     0.8870    -0.0410 c          1 SBK       0.727000
     12 O12          4.7710     1.8980    -0.0570 o          1 SBK      -0.706000
     13 O13          4.5530    -0.2440    -0.0270 o          1 SBK      -0.706000
     14 Cl2          0.7070    -2.9890     0.0250 cl         1 SBK      -0.156000
     15 H011        -2.1390    -2.4980     0.0290 ha         1 SBK       0.133000
     16 H101         2.2740     1.6510    -0.9320 h1         1 SBK       0.039200
     17 H102         2.2810     1.6760     0.8430 h1         1 SBK       0.039200
@<TRIPOS>BOND
     1     1     2 ar  
     2     1     6 ar  
     3     1    15 1   
     4     2     3 ar  
     5     2    14 1   
     6     3     4 ar  
     7     3     9 1   
     8     4     5 ar  
     9     5     6 ar  
    10     5     8 1   
    11     6     7 1   
    12     9    10 1   
    13    10    11 1   
    14    10    16 1   
    15    10    17 1   
    16    11    12 1   
    17    11    13 1   
@<TRIPOS>SUBSTRUCTURE
     1 SBK         1 TEMP              0 ****  ****    0 ROOT
