@<TRIPOS>MOLECULE
SBM
  100    99     1     0     0
SMALL
No Charge or Current Charge


@<TRIPOS>ATOM
      1 O11         -1.8480    -2.1520     3.3740 o          1 SBM      -0.478000
      2 C11         -1.6020    -1.4780     2.3830 c          1 SBM       0.619100
      3 C12         -2.5920    -1.2840     1.2310 c3         1 SBM      -0.140400
      4 C13         -3.6560    -0.2140     1.5650 c3         1 SBM      -0.067400
      5 C14         -4.7090    -0.0500     0.4460 c3         1 SBM      -0.072400
      6 C15         -5.8220     0.9610     0.8020 c3         1 SBM      -0.076400
      7 C16         -6.9040     1.0730    -0.2950 c3         1 SBM      -0.072400
      8 C17         -8.0510     2.0380     0.0780 c3         1 SBM      -0.075400
      9 C18         -9.1500     2.1120    -1.0060 c3         1 SBM      -0.073400
     10 C19        -10.3170     3.0490    -0.6250 c3         1 SBM      -0.075400
     11 C20        -11.4200     3.1050    -1.7060 c3         1 SBM      -0.075400
     12 C21        -12.5950     4.0330    -1.3280 c3         1 SBM      -0.075400
     13 C22        -13.6950     4.0810    -2.4060 c3         1 SBM      -0.088100
     14 O3          -0.4280    -0.7950     2.1740 os         1 SBM      -0.451100
     15 C3           0.6530    -0.9640     3.1210 c3         1 SBM       0.175600
     16 C2           1.6120    -2.1350     2.7310 c3         1 SBM       0.132300
     17 C1           0.9600    -3.5310     2.4420 c3         1 SBM       0.207600
     18 O3P          0.1920    -3.5120     1.2240 os         1 SBM      -0.589400
     19 P            0.6250    -4.4080    -0.0430 p5         1 SBM       1.386800
     20 O2           2.4330    -1.7080     1.6160 os         1 SBM      -0.454100
     21 C31          3.6400    -2.3270     1.4050 c          1 SBM       0.622100
     22 O31          4.1250    -3.1780     2.1400 o          1 SBM      -0.485000
     23 C32          4.3480    -1.7780     0.1650 c3         1 SBM      -0.135400
     24 C33          5.2570    -0.5820     0.5290 c3         1 SBM      -0.069400
     25 C34          5.9750     0.0250    -0.6970 c3         1 SBM      -0.072400
     26 C35          6.9240     1.1850    -0.3230 c3         1 SBM      -0.076400
     27 C36          7.6690     1.7790    -1.5400 c3         1 SBM      -0.073400
     28 C37          8.6450     2.9120    -1.1520 c3         1 SBM      -0.075400
     29 C38          9.4070     3.5020    -2.3600 c3         1 SBM      -0.074400
     30 C39         10.3880     4.6260    -1.9610 c3         1 SBM      -0.075400
     31 C40         11.1540     5.2170    -3.1610 c3         1 SBM      -0.088100
     32 O1           0.2640    -5.8390     0.1740 o          1 SBM      -0.812500
     33 O4           2.0550    -4.2380    -0.4220 o          1 SBM      -0.812500
     34 O5          -0.3420    -3.7320    -1.1460 os         1 SBM      -0.585400
     35 C4          -0.0090    -2.5200    -1.8550 c3         1 SBM       0.216600
     36 C5           0.5770    -1.4520    -0.8970 c3         1 SBM       0.085600
     37 N1           0.8150    -0.0240    -1.4120 n4         1 SBM      -0.487000
     38 C6           1.7850    -0.0350    -2.6040 c3         1 SBM       0.073567
     39 C7          -0.5120     0.6230    -1.8360 c3         1 SBM       0.073567
     40 C8           1.4250     0.8060    -0.2750 c3         1 SBM       0.073567
     41 H1          -2.0570    -0.9520     0.3360 hc         1 SBM       0.064200
     42 H2          -3.0950    -2.2390     1.0380 hc         1 SBM       0.064200
     43 H3          -4.1640    -0.4920     2.4970 hc         1 SBM       0.059700
     44 H4          -3.1620     0.7490     1.7450 hc         1 SBM       0.059700
     45 H5          -4.2100     0.2700    -0.4770 hc         1 SBM       0.025700
     46 H6          -6.2970     0.6550     1.7430 hc         1 SBM       0.045200
     47 H7          -6.4370     1.4100    -1.2290 hc         1 SBM       0.031200
     48 H8          -7.3240     0.0780    -0.4870 hc         1 SBM       0.031200
     49 H9          -8.5020     1.7130     1.0250 hc         1 SBM       0.040700
     50 H10         -7.6400     3.0420     0.2460 hc         1 SBM       0.040700
     51 H11         -8.7040     2.4550    -1.9480 hc         1 SBM       0.034200
     52 H12         -9.5430     1.1040    -1.1860 hc         1 SBM       0.034200
     53 H13        -10.7580     2.7090     0.3210 hc         1 SBM       0.039200
     54 H14         -9.9280     4.0600    -0.4530 hc         1 SBM       0.039200
     55 H15        -10.9810     3.4490    -2.6520 hc         1 SBM       0.035700
     56 H16        -11.8040     2.0920    -1.8800 hc         1 SBM       0.035700
     57 H17        -13.0370     3.6940    -0.3830 hc         1 SBM       0.037200
     58 H18        -12.2170     5.0490    -1.1580 hc         1 SBM       0.037200
     59 H19        -14.5080     4.7480    -2.0950 hc         1 SBM       0.031033
     60 H20        -13.2910     4.4510    -3.3560 hc         1 SBM       0.031033
     61 H21        -14.1170     3.0820    -2.5740 hc         1 SBM       0.031033
     62 H22          1.2540    -0.0460     3.1540 h1         1 SBM       0.063200
     63 H23          0.2740    -1.1210     4.1390 h1         1 SBM       0.063200
     64 H24          2.2530    -2.2710     3.6120 h1         1 SBM       0.063700
     65 H25          1.7500    -4.2920     2.3970 h1         1 SBM       0.053700
     66 H26          0.3160    -3.7990     3.2890 h1         1 SBM       0.053700
     67 H27          4.9560    -2.5710    -0.2860 hc         1 SBM       0.062200
     68 H28          3.6000    -1.4140    -0.5450 hc         1 SBM       0.062200
     69 H29          4.6560     0.1950     1.0170 hc         1 SBM       0.059200
     70 H30          6.0060    -0.9120     1.2610 hc         1 SBM       0.059200
     71 H31          6.5510    -0.7610    -1.2020 hc         1 SBM       0.025200
     72 H32          6.3480     1.9790     0.1700 hc         1 SBM       0.044200
     73 H33          8.2280     0.9800    -2.0450 hc         1 SBM       0.032200
     74 H34          6.9350     2.1630    -2.2610 hc         1 SBM       0.032200
     75 H35          8.0850     3.7140    -0.6530 hc         1 SBM       0.040200
     76 H36          9.3710     2.5270    -0.4240 hc         1 SBM       0.040200
     77 H37          9.9630     2.7000    -2.8620 hc         1 SBM       0.034700
     78 H38          8.6830     3.8950    -3.0860 hc         1 SBM       0.034700
     79 H39          9.8350     5.4310    -1.4600 hc         1 SBM       0.038200
     80 H40         11.1130     4.2350    -1.2350 hc         1 SBM       0.038200
     81 H41         11.7470     4.4420    -3.6630 hc         1 SBM       0.031367
     82 H42         10.4590     5.6500    -3.8900 hc         1 SBM       0.031367
     83 H43         11.8370     6.0070    -2.8260 hc         1 SBM       0.031367
     84 H45          0.7200    -2.7290    -2.6490 h1         1 SBM       0.056700
     85 H46         -0.9100    -2.1150    -2.3300 h1         1 SBM       0.056700
     86 H47         -0.0870    -1.3720    -0.0380 hx         1 SBM       0.079200
     87 H48          1.5360    -1.8210    -0.5320 hx         1 SBM       0.079200
     88 H49          1.3480    -0.6130    -3.4210 hx         1 SBM       0.095589
     89 H50          1.9590     0.9910    -2.9350 hx         1 SBM       0.095589
     90 H51          2.7300    -0.4880    -2.2990 hx         1 SBM       0.095589
     91 H52         -1.1980     0.6310    -0.9860 hx         1 SBM       0.095589
     92 H53         -0.3240     1.6480    -2.1620 hx         1 SBM       0.095589
     93 H54         -0.9490     0.0540    -2.6590 hx         1 SBM       0.095589
     94 H55          2.3720     0.3570     0.0320 hx         1 SBM       0.095589
     95 H56          1.5950     1.8270    -0.6220 hx         1 SBM       0.095589
     96 H57          0.7360     0.8120     0.5730 hx         1 SBM       0.095589
     97 H58         -5.1670    -1.0260     0.2410 hc         1 SBM       0.025700
     98 H59         -5.3750     1.9480     0.9740 hc         1 SBM       0.045200
     99 H60          5.2260     0.3850    -1.4130 hc         1 SBM       0.025200
    100 H61          7.6610     0.8240     0.4060 hc         1 SBM       0.044200
@<TRIPOS>BOND
     1     1     2 2   
     2     2     3 1   
     3     2    14 1   
     4     3     4 1   
     5     3    41 1   
     6     3    42 1   
     7     4     5 1   
     8     4    43 1   
     9     4    44 1   
    10     5     6 1   
    11     5    45 1   
    12     5    97 1   
    13     6     7 1   
    14     6    46 1   
    15     6    98 1   
    16     7     8 1   
    17     7    47 1   
    18     7    48 1   
    19     8     9 1   
    20     8    49 1   
    21     8    50 1   
    22     9    10 1   
    23     9    51 1   
    24     9    52 1   
    25    10    11 1   
    26    10    53 1   
    27    10    54 1   
    28    11    12 1   
    29    11    55 1   
    30    11    56 1   
    31    12    13 1   
    32    12    57 1   
    33    12    58 1   
    34    13    59 1   
    35    13    60 1   
    36    13    61 1   
    37    14    15 1   
    38    15    16 1   
    39    15    62 1   
    40    15    63 1   
    41    16    17 1   
    42    16    20 1   
    43    16    64 1   
    44    17    18 1   
    45    17    65 1   
    46    17    66 1   
    47    18    19 1   
    48    19    32 1   
    49    19    33 1   
    50    19    34 1   
    51    20    21 1   
    52    21    22 2   
    53    21    23 1   
    54    23    24 1   
    55    23    67 1   
    56    23    68 1   
    57    24    25 1   
    58    24    69 1   
    59    24    70 1   
    60    25    26 1   
    61    25    71 1   
    62    25    99 1   
    63    26    27 1   
    64    26    72 1   
    65    26   100 1   
    66    27    28 1   
    67    27    73 1   
    68    27    74 1   
    69    28    29 1   
    70    28    75 1   
    71    28    76 1   
    72    29    30 1   
    73    29    77 1   
    74    29    78 1   
    75    30    31 1   
    76    30    79 1   
    77    30    80 1   
    78    31    81 1   
    79    31    82 1   
    80    31    83 1   
    81    34    35 1   
    82    35    36 1   
    83    35    84 1   
    84    35    85 1   
    85    36    37 1   
    86    36    86 1   
    87    36    87 1   
    88    37    38 1   
    89    37    39 1   
    90    37    40 1   
    91    38    88 1   
    92    38    89 1   
    93    38    90 1   
    94    39    91 1   
    95    39    92 1   
    96    39    93 1   
    97    40    94 1   
    98    40    95 1   
    99    40    96 1   
@<TRIPOS>SUBSTRUCTURE
     1 SBM         1 TEMP              0 ****  ****    0 ROOT
