@<TRIPOS>MOLECULE
SBM
  100    99     1     0     0
SMALL
abcg2


@<TRIPOS>ATOM
      1 O11         -1.8960    -1.5030     4.0970 o          1 SBM      -0.478000
      2 C11         -1.4690    -0.6340     3.3800 c          1 SBM       0.619100
      3 C12         -2.2560     0.0730     2.3130 c3         1 SBM      -0.140400
      4 C13         -3.7630    -0.0810     2.4290 c3         1 SBM      -0.067400
      5 C14         -4.4760     0.6100     1.2740 c3         1 SBM      -0.072400
      6 C15         -5.9930     0.4910     1.3430 c3         1 SBM      -0.076400
      7 C16         -6.6950     1.1750     0.1760 c3         1 SBM      -0.072400
      8 C17         -8.2140     1.0700     0.2370 c3         1 SBM      -0.075400
      9 C18         -8.9090     1.7510    -0.9350 c3         1 SBM      -0.073400
     10 C19        -10.4280     1.6510    -0.8780 c3         1 SBM      -0.075400
     11 C20        -11.1200     2.3290    -2.0540 c3         1 SBM      -0.075400
     12 C21        -12.6390     2.2240    -2.0060 c3         1 SBM      -0.075400
     13 C22        -13.3180     2.9080    -3.1840 c3         1 SBM      -0.088100
     14 O3          -0.2200    -0.1740     3.4290 os         1 SBM      -0.451100
     15 C3           0.7420    -0.8260     4.2500 c3         1 SBM       0.175600
     16 C2           1.6610    -1.7290     3.4510 c3         1 SBM       0.132300
     17 C1           1.0000    -2.9470     2.8230 c3         1 SBM       0.207600
     18 O3P          0.0590    -2.5900     1.8350 os         1 SBM      -0.589400
     19 P            0.3400    -2.9770     0.2710 p5         1 SBM       1.386800
     20 O2           2.2860    -0.9070     2.4650 os         1 SBM      -0.454100
     21 C31          3.4810    -1.2510     1.9920 c          1 SBM       0.622100
     22 O31          4.1100    -2.1980     2.3950 o          1 SBM      -0.485000
     23 C32          3.9390    -0.3110     0.9140 c3         1 SBM      -0.135400
     24 C33          5.4430    -0.3130     0.6890 c3         1 SBM      -0.069400
     25 C34          5.8460     0.6450    -0.4250 c3         1 SBM      -0.072400
     26 C35          7.3480     0.6700    -0.6720 c3         1 SBM      -0.076400
     27 C36          7.7600     1.6350    -1.7770 c3         1 SBM      -0.073400
     28 C37          9.2630     1.6630    -2.0210 c3         1 SBM      -0.075400
     29 C38          9.6760     2.6320    -3.1220 c3         1 SBM      -0.074400
     30 C39         11.1800     2.6660    -3.3650 c3         1 SBM      -0.075400
     31 C40         11.5810     3.6340    -4.4690 c3         1 SBM      -0.088100
     32 O1          -0.1730    -4.3500    -0.0280 o          1 SBM      -0.812500
     33 O4           1.7360    -2.6030    -0.1360 o          1 SBM      -0.812500
     34 O5          -0.7240    -1.8500    -0.2910 os         1 SBM      -0.585400
     35 C4          -0.7880    -1.6070    -1.6750 c3         1 SBM       0.216600
     36 C5          -0.8920    -0.1290    -1.9730 c3         1 SBM       0.085600
     37 N1           0.3220     0.7230    -1.6990 n4         1 SBM      -0.487000
     38 C6           0.5690     0.8970    -0.2370 c3         1 SBM       0.073567
     39 C7           1.5370     0.1490    -2.3390 c3         1 SBM       0.073567
     40 C8           0.0560     2.0670    -2.2890 c3         1 SBM       0.073567
     41 H1          -1.9730     1.1290     2.2970 hc         1 SBM       0.064200
     42 H2          -1.9130    -0.3450     1.3610 hc         1 SBM       0.064200
     43 H3          -4.0300    -1.1410     2.4420 hc         1 SBM       0.059700
     44 H4          -4.1100     0.3390     3.3780 hc         1 SBM       0.059700
     45 H5          -4.1970     1.6690     1.2540 hc         1 SBM       0.025700
     46 H6          -6.2750    -0.5670     1.3670 hc         1 SBM       0.045200
     47 H7          -6.4060     2.2320     0.1490 hc         1 SBM       0.031200
     48 H8          -6.3400     0.7410    -0.7650 hc         1 SBM       0.031200
     49 H9          -8.5050     0.0140     0.2680 hc         1 SBM       0.040700
     50 H10         -8.5710     1.5080     1.1760 hc         1 SBM       0.040700
     51 H11         -8.6160     2.8070    -0.9660 hc         1 SBM       0.034200
     52 H12         -8.5520     1.3120    -1.8730 hc         1 SBM       0.034200
     53 H13        -10.7210     0.5960    -0.8450 hc         1 SBM       0.039200
     54 H14        -10.7870     2.0930     0.0580 hc         1 SBM       0.039200
     55 H15        -10.8310     3.3860    -2.0850 hc         1 SBM       0.035700
     56 H16        -10.7570     1.8910    -2.9910 hc         1 SBM       0.035700
     57 H17        -12.9280     1.1680    -1.9790 hc         1 SBM       0.037200
     58 H18        -13.0020     2.6600    -1.0700 hc         1 SBM       0.037200
     59 H19        -14.4030     2.8040    -3.1390 hc         1 SBM       0.031033
     60 H20        -13.0900     3.9750    -3.2070 hc         1 SBM       0.031033
     61 H21        -12.9850     2.4810    -4.1320 hc         1 SBM       0.031033
     62 H22          1.3310    -0.0360     4.7160 h1         1 SBM       0.063200
     63 H23          0.2710    -1.4060     5.0440 h1         1 SBM       0.063200
     64 H24          2.4040    -2.1070     4.1620 h1         1 SBM       0.063700
     65 H25          1.7790    -3.6080     2.4320 h1         1 SBM       0.053700
     66 H26          0.4890    -3.5000     3.6160 h1         1 SBM       0.053700
     67 H27          3.4260    -0.6260    -0.0000 hc         1 SBM       0.062200
     68 H28          3.5800     0.6980     1.1310 hc         1 SBM       0.062200
     69 H29          5.9570    -0.0320     1.6130 hc         1 SBM       0.059200
     70 H30          5.7800    -1.3220     0.4400 hc         1 SBM       0.059200
     71 H31          5.3300     0.3650    -1.3510 hc         1 SBM       0.025200
     72 H32          7.8630     0.9410     0.2570 hc         1 SBM       0.044200
     73 H33          7.2460     1.3650    -2.7060 hc         1 SBM       0.032200
     74 H34          7.4150     2.6440    -1.5230 hc         1 SBM       0.032200
     75 H35          9.7760     1.9310    -1.0910 hc         1 SBM       0.040200
     76 H36          9.6080     0.6550    -2.2770 hc         1 SBM       0.040200
     77 H37          9.1660     2.3630    -4.0540 hc         1 SBM       0.034700
     78 H38          9.3280     3.6400    -2.8680 hc         1 SBM       0.034700
     79 H39         11.6900     2.9380    -2.4350 hc         1 SBM       0.038200
     80 H40         11.5280     1.6590    -3.6170 hc         1 SBM       0.038200
     81 H41         11.1210     3.3590    -5.4200 hc         1 SBM       0.031367
     82 H42         11.2650     4.6520    -4.2350 hc         1 SBM       0.031367
     83 H43         12.6610     3.6490    -4.6170 hc         1 SBM       0.031367
     84 H45          0.0470    -2.0510    -2.2240 h1         1 SBM       0.056700
     85 H46         -1.6980    -2.0490    -2.0930 h1         1 SBM       0.056700
     86 H47         -1.1080    -0.0200    -3.0360 hx         1 SBM       0.079200
     87 H48         -1.7170     0.3210    -1.4200 hx         1 SBM       0.079200
     88 H49          0.8860    -0.0350     0.2110 hx         1 SBM       0.095589
     89 H50          1.3470     1.6460    -0.1090 hx         1 SBM       0.095589
     90 H51         -0.3440     1.2440     0.2370 hx         1 SBM       0.095589
     91 H52          1.3450    -0.0110    -3.3970 hx         1 SBM       0.095589
     92 H53          2.3550     0.8570    -2.2240 hx         1 SBM       0.095589
     93 H54          1.7950    -0.7890    -1.8570 hx         1 SBM       0.095589
     94 H55         -0.8240     2.4980    -1.8190 hx         1 SBM       0.095589
     95 H56          0.9160     2.7070    -2.1150 hx         1 SBM       0.095589
     96 H57         -0.1120     1.9620    -3.3570 hx         1 SBM       0.095589
     97 H58         -4.1220     0.1870     0.3260 hc         1 SBM       0.025700
     98 H59         -6.3480     0.9220     2.2850 hc         1 SBM       0.045200
     99 H60          5.5000     1.6560    -0.1800 hc         1 SBM       0.025200
    100 H61          7.6910    -0.3390    -0.9260 hc         1 SBM       0.044200
@<TRIPOS>BOND
     1     1     2 2   
     2     2     3 1   
     3     2    14 1   
     4     3     4 1   
     5     3    41 1   
     6     3    42 1   
     7     4     5 1   
     8     4    43 1   
     9     4    44 1   
    10     5     6 1   
    11     5    45 1   
    12     5    97 1   
    13     6     7 1   
    14     6    46 1   
    15     6    98 1   
    16     7     8 1   
    17     7    47 1   
    18     7    48 1   
    19     8     9 1   
    20     8    49 1   
    21     8    50 1   
    22     9    10 1   
    23     9    51 1   
    24     9    52 1   
    25    10    11 1   
    26    10    53 1   
    27    10    54 1   
    28    11    12 1   
    29    11    55 1   
    30    11    56 1   
    31    12    13 1   
    32    12    57 1   
    33    12    58 1   
    34    13    59 1   
    35    13    60 1   
    36    13    61 1   
    37    14    15 1   
    38    15    16 1   
    39    15    62 1   
    40    15    63 1   
    41    16    17 1   
    42    16    20 1   
    43    16    64 1   
    44    17    18 1   
    45    17    65 1   
    46    17    66 1   
    47    18    19 1   
    48    19    32 1   
    49    19    33 1   
    50    19    34 1   
    51    20    21 1   
    52    21    22 2   
    53    21    23 1   
    54    23    24 1   
    55    23    67 1   
    56    23    68 1   
    57    24    25 1   
    58    24    69 1   
    59    24    70 1   
    60    25    26 1   
    61    25    71 1   
    62    25    99 1   
    63    26    27 1   
    64    26    72 1   
    65    26   100 1   
    66    27    28 1   
    67    27    73 1   
    68    27    74 1   
    69    28    29 1   
    70    28    75 1   
    71    28    76 1   
    72    29    30 1   
    73    29    77 1   
    74    29    78 1   
    75    30    31 1   
    76    30    79 1   
    77    30    80 1   
    78    31    81 1   
    79    31    82 1   
    80    31    83 1   
    81    34    35 1   
    82    35    36 1   
    83    35    84 1   
    84    35    85 1   
    85    36    37 1   
    86    36    86 1   
    87    36    87 1   
    88    37    38 1   
    89    37    39 1   
    90    37    40 1   
    91    38    88 1   
    92    38    89 1   
    93    38    90 1   
    94    39    91 1   
    95    39    92 1   
    96    39    93 1   
    97    40    94 1   
    98    40    95 1   
    99    40    96 1   
@<TRIPOS>SUBSTRUCTURE
     1 SBM         1 TEMP              0 ****  ****    0 ROOT
