@<TRIPOS>MOLECULE
SBN
   34    35     1     0     0
SMALL
No Charge or Current Charge


@<TRIPOS>ATOM
      1 C1          -0.3370    -1.5670    -3.6570 ca         1 SBN      -0.158000
      2 C2           0.8120    -1.0990    -3.0040 ca         1 SBN       0.361000
      3 C3           0.6900    -0.1600    -1.9460 ca         1 SBN      -0.036000
      4 C4          -0.6030     0.3060    -1.5590 ca         1 SBN      -0.163500
      5 C5          -1.7420    -0.1900    -2.2350 ca         1 SBN      -0.083000
      6 C6          -1.6090    -1.1180    -3.2760 ca         1 SBN      -0.058000
      7 S           -0.8420     1.5040    -0.2040 sy         1 SBN       1.015000
      8 O1          -2.2850     1.7480    -0.0700 o          1 SBN      -0.520000
      9 O2           0.0880     2.6250    -0.4040 o          1 SBN      -0.520000
     10 C7          -0.3110     0.5930     1.2630 ca         1 SBN      -0.256500
     11 C8          -1.0490    -0.5330     1.6800 ca         1 SBN      -0.019500
     12 C9          -0.6460    -1.2680     2.8100 ca         1 SBN      -0.087800
     13 C10          0.4980    -0.8680     3.5270 ca         1 SBN      -0.060000
     14 C11          1.2390     0.2570     3.1210 ca         1 SBN      -0.087800
     15 C12          0.8340     0.9860     1.9870 ca         1 SBN      -0.019500
     16 N2           2.8620     0.6520    -0.7500 n1         1 SBN      -0.443000
     17 C13          1.8840     0.2950    -1.2780 cg         1 SBN       0.317000
     18 N1           2.0300    -1.5870    -3.4300 nv         1 SBN      -1.104000
     19 C14         -1.4440    -2.4840     3.2560 c3         1 SBN      -0.048300
     20 C15          2.4790     0.6800     3.8960 c3         1 SBN      -0.048300
     21 H1          -0.2480    -2.2880    -4.4650 ha         1 SBN       0.118000
     22 H5          -2.7420     0.1410    -1.9590 ha         1 SBN       0.148000
     23 H6          -2.4930    -1.4910    -3.7890 ha         1 SBN       0.120000
     24 H8          -1.9350    -0.8410     1.1260 ha         1 SBN       0.136500
     25 H10          0.8110    -1.4340     4.4010 ha         1 SBN       0.113000
     26 H12          1.4150     1.8520     1.6740 ha         1 SBN       0.136500
     27 HN11         2.0800    -2.1360    -4.2870 hn         1 SBN       0.486000
     28 HN12         2.8970    -1.1630    -3.1020 hn         1 SBN       0.486000
     29 H141        -2.2550    -2.1900     3.9330 hc         1 SBN       0.046367
     30 H142        -1.8920    -3.0040     2.4010 hc         1 SBN       0.046367
     31 H143        -0.8120    -3.2070     3.7850 hc         1 SBN       0.046367
     32 H151         3.3840     0.2540     3.4460 hc         1 SBN       0.046367
     33 H152         2.5910     1.7700     3.9050 hc         1 SBN       0.046367
     34 H153         2.4340     0.3450     4.9390 hc         1 SBN       0.046367
@<TRIPOS>BOND
     1     1     2 ar  
     2     1     6 ar  
     3     1    21 1   
     4     2     3 ar  
     5     2    18 1   
     6     3     4 ar  
     7     3    17 1   
     8     4     5 ar  
     9     4     7 1   
    10     5     6 ar  
    11     5    22 1   
    12     6    23 1   
    13     7     8 2   
    14     7     9 2   
    15     7    10 1   
    16    10    11 ar  
    17    10    15 ar  
    18    11    12 ar  
    19    11    24 1   
    20    12    13 ar  
    21    12    19 1   
    22    13    14 ar  
    23    13    25 1   
    24    14    15 ar  
    25    14    20 1   
    26    15    26 1   
    27    16    17 3   
    28    18    27 1   
    29    18    28 1   
    30    19    29 1   
    31    19    30 1   
    32    19    31 1   
    33    20    32 1   
    34    20    33 1   
    35    20    34 1   
@<TRIPOS>SUBSTRUCTURE
     1 SBN         1 TEMP              0 ****  ****    0 ROOT
