@<TRIPOS>MOLECULE
SBN
   34    35     1     0     0
SMALL
abcg2


@<TRIPOS>ATOM
      1 C1          -0.2060    -1.5580    -3.6030 ca         1 SBN      -0.158000
      2 C2           0.9310    -0.9540    -3.0290 ca         1 SBN       0.361000
      3 C3           0.7250    -0.0440    -1.9690 ca         1 SBN      -0.036000
      4 C4          -0.5810     0.2200    -1.5200 ca         1 SBN      -0.163500
      5 C5          -1.6760    -0.3770    -2.0940 ca         1 SBN      -0.083000
      6 C6          -1.4670    -1.2750    -3.1470 ca         1 SBN      -0.058000
      7 S           -0.8620     1.3710    -0.1850 sy         1 SBN       1.015000
      8 O1          -2.3010     1.5840    -0.0920 o          1 SBN      -0.520000
      9 O2           0.0170     2.5170    -0.3830 o          1 SBN      -0.520000
     10 C7          -0.3400     0.4840     1.2560 ca         1 SBN      -0.256500
     11 C8          -1.1650    -0.5240     1.7400 ca         1 SBN      -0.019500
     12 C9          -0.7850    -1.2210     2.8790 ca         1 SBN      -0.087800
     13 C10          0.4170    -0.8790     3.4980 ca         1 SBN      -0.060000
     14 C11          1.2430     0.1320     3.0180 ca         1 SBN      -0.087800
     15 C12          0.8480     0.8280     1.8780 ca         1 SBN      -0.019500
     16 N2           2.8710     0.9690    -0.9820 n1         1 SBN      -0.443000
     17 C13          1.8770     0.5480    -1.3910 cg         1 SBN       0.317000
     18 N1           2.1640    -1.2720    -3.4720 nv         1 SBN      -1.104000
     19 C14         -1.6670    -2.2910     3.4520 c3         1 SBN      -0.048300
     20 C15          2.5430     0.4540     3.6920 c3         1 SBN      -0.048300
     21 H1          -0.0690    -2.2560    -4.4190 ha         1 SBN       0.118000
     22 H5          -2.6770    -0.1660    -1.7490 ha         1 SBN       0.148000
     23 H6          -2.3180    -1.7520    -3.6120 ha         1 SBN       0.120000
     24 H8          -2.0960    -0.7700     1.2450 ha         1 SBN       0.136500
     25 H10          0.7170    -1.4200     4.3890 ha         1 SBN       0.113000
     26 H12          1.4690     1.6210     1.4850 ha         1 SBN       0.136500
     27 HN11         2.2490    -1.7820    -4.3340 hn         1 SBN       0.486000
     28 HN12         2.9640    -0.7110    -3.2280 hn         1 SBN       0.486000
     29 H141        -2.4010    -1.8590     4.1350 hc         1 SBN       0.046367
     30 H142        -2.2180    -2.8160     2.6720 hc         1 SBN       0.046367
     31 H143        -1.0910    -3.0250     4.0130 hc         1 SBN       0.046367
     32 H151         3.3660    -0.0830     3.2170 hc         1 SBN       0.046367
     33 H152         2.7720     1.5180     3.6300 hc         1 SBN       0.046367
     34 H153         2.5300     0.1700     4.7440 hc         1 SBN       0.046367
@<TRIPOS>BOND
     1     1     2 ar  
     2     1     6 ar  
     3     1    21 1   
     4     2     3 ar  
     5     2    18 1   
     6     3     4 ar  
     7     3    17 1   
     8     4     5 ar  
     9     4     7 1   
    10     5     6 ar  
    11     5    22 1   
    12     6    23 1   
    13     7     8 2   
    14     7     9 2   
    15     7    10 1   
    16    10    11 ar  
    17    10    15 ar  
    18    11    12 ar  
    19    11    24 1   
    20    12    13 ar  
    21    12    19 1   
    22    13    14 ar  
    23    13    25 1   
    24    14    15 ar  
    25    14    20 1   
    26    15    26 1   
    27    16    17 3   
    28    18    27 1   
    29    18    28 1   
    30    19    29 1   
    31    19    30 1   
    32    19    31 1   
    33    20    32 1   
    34    20    33 1   
    35    20    34 1   
@<TRIPOS>SUBSTRUCTURE
     1 SBN         1 TEMP              0 ****  ****    0 ROOT
