@<TRIPOS>MOLECULE
SBQ
   50    52     1     0     0
SMALL
No Charge or Current Charge


@<TRIPOS>ATOM
      1 C12         -0.6400     3.3790    18.6130 ca         1 SBQ      -0.125000
      2 C10         -1.8700     3.1420    16.5040 cp         1 SBQ      -0.046000
      3 C4          -4.2020     4.0980     9.3690 c3         1 SBQ       0.164600
      4 C6          -2.3230     1.3290    12.5750 ca         1 SBQ       0.157100
      5 C7          -3.4590     1.6220    13.3620 ca         1 SBQ      -0.177000
      6 C2          -3.2320     2.0260     8.1220 c6         1 SBQ       0.155300
      7 O1          -2.4890    -0.0820     7.0870 oh         1 SBQ      -0.629000
      8 C           -3.4880    -0.2350     9.3180 c6         1 SBQ       0.113300
      9 O           -4.7470    -0.5600     8.6680 oh         1 SBQ      -0.684000
     10 C1          -2.6140     0.6080     8.3430 c6         1 SBQ       0.182300
     11 C11         -0.7860     2.7930    17.3460 ca         1 SBQ      -0.072000
     12 C13         -1.5720     4.3250    19.0660 ca         1 SBQ      -0.053000
     13 C14         -2.6640     4.6990    18.2540 ca         1 SBQ      -0.142600
     14 C15         -3.6570     5.7230    18.7560 c          1 SBQ       0.605700
     15 C16         -5.6740     6.9510    18.2570 c3         1 SBQ       0.153900
     16 C17         -2.8010     4.1000    16.9790 ca         1 SBQ      -0.048000
     17 C18         -0.8980     2.2120    14.3520 ca         1 SBQ      -0.063000
     18 C19         -1.0420     1.6270    13.0830 ca         1 SBQ       0.078000
     19 C3          -3.4680     2.7210     9.5000 c6         1 SBQ       0.138300
     20 C5          -3.6780     0.5730    10.6500 c6         1 SBQ       0.358300
     21 C8          -3.3080     2.2090    14.6310 ca         1 SBQ      -0.063000
     22 C9          -2.0260     2.5170    15.1520 cp         1 SBQ      -0.062000
     23 O2          -2.3700     2.8100     7.2670 oh         1 SBQ      -0.709000
     24 O4          -4.2630     1.8680    10.3700 os         1 SBQ      -0.442000
     25 O6          -4.6750     5.9890    17.8730 os         1 SBQ      -0.441100
     26 O7          -3.5580     6.2630    19.8510 o          1 SBQ      -0.488000
     27 Cl           0.4050     1.2840    12.1310 cl         1 SBQ      -0.185000
     28 H14          0.1970     3.0960    19.2480 ha         1 SBQ       0.121000
     29 H8          -3.6100     4.7470     8.7100 h1         1 SBQ       0.032200
     30 H9          -4.2000     4.5680    10.3620 h1         1 SBQ       0.032200
     31 H11         -4.4630     1.4030    13.0120 ha         1 SBQ       0.133000
     32 H2          -4.2160     1.8970     7.6450 h1         1 SBQ       0.087700
     33 H6          -3.3420    -0.5660     6.9910 ho         1 SBQ       0.442000
     34 H           -2.9440    -1.1600     9.5590 h1         1 SBQ       0.051700
     35 H5          -5.2660    -1.1290     9.2840 ho         1 SBQ       0.503000
     36 H1          -1.6180     0.7350     8.7950 h1         1 SBQ       0.060700
     37 H13         -0.0600     2.0520    17.0220 ha         1 SBQ       0.119000
     38 H15         -1.4410     4.7690    20.0520 ha         1 SBQ       0.137000
     39 H18         -6.4210     7.0630    17.4610 h1         1 SBQ       0.049700
     40 H17         -6.1950     6.6330    19.1690 h1         1 SBQ       0.049700
     41 H16         -5.2220     7.9350    18.4390 h1         1 SBQ       0.049700
     42 H19         -3.6280     4.3870    16.3340 ha         1 SBQ       0.132000
     43 H20          0.1010     2.4450    14.7100 ha         1 SBQ       0.132000
     44 H3          -2.4950     2.9100     9.9770 h1         1 SBQ       0.062700
     45 H4          -4.3530     0.0010    11.3050 h2         1 SBQ       0.077700
     46 H12         -4.1970     2.4140    15.2220 ha         1 SBQ       0.121000
     47 H7          -2.0720     2.1920     6.5570 ho         1 SBQ       0.509000
     48 H10         -5.9420     4.9010     8.9100 ho         1 SBQ       0.503000
     49 O5          -2.4130     0.7480    11.3210 os         1 SBQ      -0.371100
     50 O3          -5.5560     3.9950     8.8810 oh         1 SBQ      -0.711000
@<TRIPOS>BOND
     1     1    11 ar  
     2     1    12 ar  
     3     1    28 1   
     4     2    11 ar  
     5     2    16 ar  
     6     2    22 1   
     7     3    19 1   
     8     3    29 1   
     9     3    30 1   
    10     3    50 1   
    11     4     5 ar  
    12     4    18 ar  
    13     4    49 1   
    14     5    21 ar  
    15     5    31 1   
    16     6    10 1   
    17     6    19 1   
    18     6    23 1   
    19     6    32 1   
    20     7    10 1   
    21     7    33 1   
    22     8     9 1   
    23     8    10 1   
    24     8    20 1   
    25     8    34 1   
    26     9    35 1   
    27    10    36 1   
    28    11    37 1   
    29    12    13 ar  
    30    12    38 1   
    31    13    14 1   
    32    13    16 ar  
    33    14    25 1   
    34    14    26 2   
    35    15    25 1   
    36    15    39 1   
    37    15    40 1   
    38    15    41 1   
    39    16    42 1   
    40    17    18 ar  
    41    17    22 ar  
    42    17    43 1   
    43    18    27 1   
    44    19    24 1   
    45    19    44 1   
    46    20    24 1   
    47    20    45 1   
    48    20    49 1   
    49    21    22 ar  
    50    21    46 1   
    51    23    47 1   
    52    48    50 1   
@<TRIPOS>SUBSTRUCTURE
     1 SBQ         1 TEMP              0 ****  ****    0 ROOT
