@<TRIPOS>MOLECULE
SBQ
   50    52     1     0     0
SMALL
bcc


@<TRIPOS>ATOM
      1 C12         -0.7690     3.2090    18.5890 ca         1 SBQ      -0.143000
      2 C10         -1.9440     3.0900    16.4790 cp         1 SBQ      -0.046000
      3 C4          -4.3390     3.9780     9.3180 c3         1 SBQ       0.141400
      4 C6          -2.4390     1.3800    12.5710 ca         1 SBQ       0.157100
      5 C7          -3.5470     1.7290    13.3370 ca         1 SBQ      -0.195000
      6 C2          -3.2980     1.9590     8.1490 c6         1 SBQ       0.132100
      7 O1          -2.3620    -0.0230     7.2280 oh         1 SBQ      -0.566800
      8 C           -3.3850    -0.1810     9.4290 c6         1 SBQ       0.090100
      9 O           -4.5800    -0.5710     8.8040 oh         1 SBQ      -0.561800
     10 C1          -2.5700     0.6540     8.4390 c6         1 SBQ       0.159100
     11 C11         -0.9230     2.6570    17.3260 ca         1 SBQ      -0.090000
     12 C13         -1.6320     4.1990    19.0300 ca         1 SBQ      -0.071000
     13 C14         -2.6560     4.6420    18.1970 ca         1 SBQ      -0.142600
     14 C15         -3.5560     5.7120    18.7010 c          1 SBQ       0.654700
     15 C16         -5.4020     7.0830    18.2030 c3         1 SBQ       0.130700
     16 C17         -2.8050     4.0890    16.9280 ca         1 SBQ      -0.066000
     17 C18         -1.0070     2.1650    14.3620 ca         1 SBQ      -0.081000
     18 C19         -1.1700     1.6180    13.1040 ca         1 SBQ      -0.013600
     19 C3          -3.5690     2.6860     9.4760 c6         1 SBQ       0.115100
     20 C5          -3.7050     0.6470    10.6760 c6         1 SBQ       0.311900
     21 C8          -3.3800     2.2760    14.6000 ca         1 SBQ      -0.081000
     22 C9          -2.1160     2.5040    15.1360 cp         1 SBQ      -0.062000
     23 O2          -2.4810     2.7560     7.3240 oh         1 SBQ      -0.586800
     24 O4          -4.3010     1.8540    10.3700 os         1 SBQ      -0.395600
     25 O6          -4.4780     6.0640    17.8200 os         1 SBQ      -0.417900
     26 O7          -3.4570     6.2070    19.7980 o          1 SBQ      -0.537000
     27 CL           0.2200     1.2250    12.1550 cl         1 SBQ      -0.093400
     28 H14          0.0220     2.8550    19.2360 ha         1 SBQ       0.139000
     29 H8          -3.6980     4.6900     8.7850 h1         1 SBQ       0.032200
     30 H9          -4.5080     4.4020    10.3170 h1         1 SBQ       0.032200
     31 H11         -4.5520     1.5750    12.9730 ha         1 SBQ       0.151000
     32 H2          -4.2510     1.7300     7.6590 h1         1 SBQ       0.087700
     33 H6          -1.8140    -0.7950     7.4020 ho         1 SBQ       0.403000
     34 H           -2.7950    -1.0560     9.7390 h1         1 SBQ       0.051700
     35 H5          -4.9970    -1.2550     9.3370 ho         1 SBQ       0.404000
     36 H1          -1.6100     0.8960     8.9200 h1         1 SBQ       0.060700
     37 H13         -0.2530     1.8690    17.0070 ha         1 SBQ       0.137000
     38 H15         -1.5100     4.6220    20.0170 ha         1 SBQ       0.155000
     39 H18         -6.0730     7.2080    17.3580 h1         1 SBQ       0.049700
     40 H17         -5.9750     6.7900    19.0810 h1         1 SBQ       0.049700
     41 H16         -4.8930     8.0260    18.4020 h1         1 SBQ       0.049700
     42 H19         -3.5840     4.4480    16.2690 ha         1 SBQ       0.150000
     43 H20         -0.0050     2.3480    14.7290 ha         1 SBQ       0.150000
     44 H3          -2.6010     2.9590     9.9190 h1         1 SBQ       0.062700
     45 H4          -4.4130     0.1050    11.3150 h2         1 SBQ       0.077700
     46 H12         -4.2650     2.5130    15.1770 ha         1 SBQ       0.139000
     47 H7          -3.0440     3.3390     6.8070 ho         1 SBQ       0.410000
     48 H10         -5.9620     4.5900     8.4600 ho         1 SBQ       0.404000
     49 O5          -2.4750     0.8180    11.3510 os         1 SBQ      -0.347900
     50 O3          -5.5470     3.7410     8.6370 oh         1 SBQ      -0.588800
@<TRIPOS>BOND
     1     1    11 ar  
     2     1    12 ar  
     3     1    28 1   
     4     2    11 ar  
     5     2    16 ar  
     6     2    22 1   
     7     3    19 1   
     8     3    29 1   
     9     3    30 1   
    10     3    50 1   
    11     4     5 ar  
    12     4    18 ar  
    13     4    49 1   
    14     5    21 ar  
    15     5    31 1   
    16     6    10 1   
    17     6    19 1   
    18     6    23 1   
    19     6    32 1   
    20     7    10 1   
    21     7    33 1   
    22     8     9 1   
    23     8    10 1   
    24     8    20 1   
    25     8    34 1   
    26     9    35 1   
    27    10    36 1   
    28    11    37 1   
    29    12    13 ar  
    30    12    38 1   
    31    13    14 1   
    32    13    16 ar  
    33    14    25 1   
    34    14    26 2   
    35    15    25 1   
    36    15    39 1   
    37    15    40 1   
    38    15    41 1   
    39    16    42 1   
    40    17    18 ar  
    41    17    22 ar  
    42    17    43 1   
    43    18    27 1   
    44    19    24 1   
    45    19    44 1   
    46    20    24 1   
    47    20    45 1   
    48    20    49 1   
    49    21    22 ar  
    50    21    46 1   
    51    23    47 1   
    52    48    50 1   
@<TRIPOS>SUBSTRUCTURE
     1 SBQ         1 TEMP              0 ****  ****    0 ROOT
