@<TRIPOS>MOLECULE
SBR
   47    49     1     0     0
SMALL
No Charge or Current Charge


@<TRIPOS>ATOM
      1 C01          1.6010    -0.1930    -3.8940 c3         1 SBR       0.081600
      2 C02          1.1010     0.0600    -2.4470 c3         1 SBR      -0.104700
      3 C03          1.8800    -0.8340    -1.4500 c3         1 SBR       0.098000
      4 N04          1.3510    -0.7600    -0.0820 ns         1 SBR      -0.499900
      5 C05          1.9020    -0.0160     0.9430 c          1 SBR       0.610700
      6 O06          2.9290     0.6300     0.7790 o          1 SBR      -0.591100
      7 C07          1.1700    -0.0420     2.2740 ca         1 SBR      -0.099600
      8 C08          1.6900     0.6900     3.3660 ca         1 SBR      -0.097000
      9 C09          1.0410     0.6910     4.6130 ca         1 SBR      -0.019000
     10 C10         -0.1460    -0.0450     4.7930 ca         1 SBR      -0.248500
     11 C11         -0.6780    -0.7770     3.7130 ca         1 SBR      -0.019000
     12 C12         -0.0270    -0.7770     2.4670 ca         1 SBR      -0.097000
     13 S13         -0.9790    -0.0460     6.3860 sy         1 SBR       1.126600
     14 O14         -1.8720    -1.1970     6.5100 o          1 SBR      -0.541500
     15 O15         -0.0650     0.3490     7.4560 o          1 SBR      -0.541500
     16 NP6         -2.0020     1.2190     6.2720 n8         1 SBR      -1.006100
     17 N17          0.7930     0.4660    -4.9380 na         1 SBR      -0.090700
     18 C18          1.1010     1.6590    -5.6240 cc         1 SBR      -0.158100
     19 C19          0.0320     1.8410    -6.4900 cd         1 SBR      -0.239200
     20 C20         -0.4200    -0.0550    -5.3830 ca         1 SBR      -0.049200
     21 C21         -1.1080    -1.2150    -4.9900 ca         1 SBR      -0.130000
     22 C22         -2.3390    -1.5000    -5.6210 ca         1 SBR      -0.094000
     23 C23         -2.8530    -0.6350    -6.6180 ca         1 SBR      -0.141000
     24 C24         -2.1410     0.5240    -6.9950 ca         1 SBR      -0.059000
     25 C25         -0.9250     0.7740    -6.3480 ca         1 SBR      -0.097800
     26 C26          1.1540     1.5630    -2.0660 c3         1 SBR      -0.087100
     27 HC11         2.6370     0.1580    -3.9840 h1         1 SBR       0.058200
     28 HC12         1.6060    -1.2710    -4.0960 h1         1 SBR       0.058200
     29 HC2          0.0490    -0.2510    -2.4040 hc         1 SBR       0.057700
     30 HC31         1.8160    -1.8800    -1.7780 h1         1 SBR       0.060200
     31 HC32         2.9420    -0.5540    -1.4550 h1         1 SBR       0.060200
     32 HN4          0.5060    -1.2720     0.1300 hn         1 SBR       0.317500
     33 HC8          2.6050     1.2670     3.2530 ha         1 SBR       0.130000
     34 HC9          1.4640     1.2670     5.4350 ha         1 SBR       0.141000
     35 H11         -1.5970    -1.3480     3.8340 ha         1 SBR       0.141000
     36 H12         -0.4720    -1.3540     1.6610 ha         1 SBR       0.130000
     37 HN61        -2.8760     0.7720     6.5380 hn         1 SBR       0.476500
     38 HN62        -1.7570     1.7280     7.1190 hn         1 SBR       0.476500
     39 H18          1.9990     2.2420    -5.4440 h4         1 SBR       0.211000
     40 H19         -0.0640     2.6760    -7.1810 ha         1 SBR       0.206000
     41 H21         -0.7120    -1.8790    -4.2250 ha         1 SBR       0.109000
     42 H22         -2.8960    -2.3910    -5.3390 ha         1 SBR       0.108000
     43 H23         -3.8030    -0.8650    -7.0960 ha         1 SBR       0.110000
     44 H24         -2.5220     1.1980    -7.7590 ha         1 SBR       0.114000
     45 H261         2.1880     1.9300    -2.0730 hc         1 SBR       0.042700
     46 H262         0.5700     2.1680    -2.7690 hc         1 SBR       0.042700
     47 H263         0.7360     1.7330    -1.0670 hc         1 SBR       0.042700
@<TRIPOS>BOND
     1     1     2 1   
     2     1    17 1   
     3     1    27 1   
     4     1    28 1   
     5     2     3 1   
     6     2    26 1   
     7     2    29 1   
     8     3     4 1   
     9     3    30 1   
    10     3    31 1   
    11     4     5 1   
    12     4    32 1   
    13     5     6 2   
    14     5     7 1   
    15     7     8 ar  
    16     7    12 ar  
    17     8     9 ar  
    18     8    33 1   
    19     9    10 ar  
    20     9    34 1   
    21    10    11 ar  
    22    10    13 1   
    23    11    12 ar  
    24    11    35 1   
    25    12    36 1   
    26    13    14 2   
    27    13    15 2   
    28    13    16 1   
    29    16    37 1   
    30    16    38 1   
    31    17    18 1   
    32    17    20 1   
    33    18    19 2   
    34    18    39 1   
    35    19    25 1   
    36    19    40 1   
    37    20    21 ar  
    38    20    25 ar  
    39    21    22 ar  
    40    21    41 1   
    41    22    23 ar  
    42    22    42 1   
    43    23    24 ar  
    44    23    43 1   
    45    24    25 ar  
    46    24    44 1   
    47    26    45 1   
    48    26    46 1   
    49    26    47 1   
@<TRIPOS>SUBSTRUCTURE
     1 SBR         1 TEMP              0 ****  ****    0 ROOT
