@<TRIPOS>MOLECULE
SBR
   47    49     1     0     0
SMALL
bcc


@<TRIPOS>ATOM
      1 C01          1.6020    -0.0480    -3.7820 c3         1 SBR       0.052300
      2 C02          0.9780     0.0790    -2.3900 c3         1 SBR      -0.104700
      3 C03          1.9280    -0.5780    -1.3860 c3         1 SBR       0.098000
      4 N04          1.3830    -0.6000    -0.0480 ns         1 SBR      -0.566900
      5 C05          1.9150     0.0510     0.9970 c          1 SBR       0.677700
      6 O06          2.9650     0.6750     0.9540 o          1 SBR      -0.591100
      7 C07          1.1330    -0.0310     2.2730 ca         1 SBR      -0.099600
      8 C08          1.8330    -0.0130     3.4750 ca         1 SBR      -0.115000
      9 C09          1.1580    -0.0650     4.6830 ca         1 SBR      -0.037000
     10 C10         -0.2290    -0.0980     4.6780 ca         1 SBR      -0.248500
     11 C11         -0.9470    -0.0960     3.4910 ca         1 SBR      -0.037000
     12 C12         -0.2590    -0.0690     2.2890 ca         1 SBR      -0.115000
     13 S13         -1.1150    -0.1500     6.2140 sy         1 SBR       1.268200
     14 O14         -2.3520    -0.8920     6.0270 o          1 SBR      -0.612300
     15 O15         -0.1830    -0.5910     7.2420 o          1 SBR      -0.612300
     16 NP6         -1.5520     1.4320     6.3810 n8         1 SBR      -0.895700
     17 N17          0.7650     0.4670    -4.8390 na         1 SBR      -0.061400
     18 C18          0.8980     1.6910    -5.4390 cc         1 SBR      -0.108100
     19 C19         -0.1020     1.8870    -6.3450 cd         1 SBR      -0.189200
     20 C20         -0.3440    -0.1500    -5.3510 ca         1 SBR      -0.049200
     21 C21         -0.8880    -1.4030    -5.0660 ca         1 SBR      -0.148000
     22 C22         -2.0230    -1.7790    -5.7580 ca         1 SBR      -0.112000
     23 C23         -2.6110    -0.9320    -6.7120 ca         1 SBR      -0.159000
     24 C24         -2.0690     0.3060    -6.9940 ca         1 SBR      -0.077000
     25 C25         -0.9180     0.7150    -6.3100 ca         1 SBR      -0.097800
     26 C26          0.6750     1.5260    -2.0330 c3         1 SBR      -0.087100
     27 HC11         2.5490     0.4950    -3.8150 h1         1 SBR       0.058200
     28 HC12         1.8330    -1.0950    -3.9970 h1         1 SBR       0.058200
     29 HC2          0.0410    -0.4900    -2.3830 hc         1 SBR       0.057700
     30 HC31         2.1450    -1.6030    -1.6970 h1         1 SBR       0.060200
     31 HC32         2.8770    -0.0430    -1.3560 h1         1 SBR       0.060200
     32 HN4          0.5690    -1.1740     0.1000 hn         1 SBR       0.317500
     33 HC8          2.9140     0.0250     3.4740 ha         1 SBR       0.148000
     34 HC9          1.7160    -0.0760     5.6090 ha         1 SBR       0.159000
     35 H11         -2.0280    -0.1120     3.4890 ha         1 SBR       0.159000
     36 H12         -0.8300    -0.0550     1.3690 ha         1 SBR       0.148000
     37 HN61        -2.3550     1.5350     6.9960 hn         1 SBR       0.421300
     38 HN62        -0.7880     2.0210     6.6950 hn         1 SBR       0.421300
     39 H18          1.7180     2.3380    -5.1680 h4         1 SBR       0.161000
     40 H19         -0.2350     2.7590    -6.9660 ha         1 SBR       0.156000
     41 H21         -0.4440    -2.0650    -4.3330 ha         1 SBR       0.127000
     42 H22         -2.4680    -2.7460    -5.5590 ha         1 SBR       0.126000
     43 H23         -3.5020    -1.2590    -7.2320 ha         1 SBR       0.128000
     44 H24         -2.5270     0.9520    -7.7330 ha         1 SBR       0.132000
     45 H261         1.5780     2.1400    -2.0750 hc         1 SBR       0.042700
     46 H262        -0.0590     1.9590    -2.7120 hc         1 SBR       0.042700
     47 H263         0.2640     1.6050    -1.0260 hc         1 SBR       0.042700
@<TRIPOS>BOND
     1     1     2 1   
     2     1    17 1   
     3     1    27 1   
     4     1    28 1   
     5     2     3 1   
     6     2    26 1   
     7     2    29 1   
     8     3     4 1   
     9     3    30 1   
    10     3    31 1   
    11     4     5 1   
    12     4    32 1   
    13     5     6 2   
    14     5     7 1   
    15     7     8 ar  
    16     7    12 ar  
    17     8     9 ar  
    18     8    33 1   
    19     9    10 ar  
    20     9    34 1   
    21    10    11 ar  
    22    10    13 1   
    23    11    12 ar  
    24    11    35 1   
    25    12    36 1   
    26    13    14 2   
    27    13    15 2   
    28    13    16 1   
    29    16    37 1   
    30    16    38 1   
    31    17    18 1   
    32    17    20 1   
    33    18    19 2   
    34    18    39 1   
    35    19    25 1   
    36    19    40 1   
    37    20    21 ar  
    38    20    25 ar  
    39    21    22 ar  
    40    21    41 1   
    41    22    23 ar  
    42    22    42 1   
    43    23    24 ar  
    44    23    43 1   
    45    24    25 ar  
    46    24    44 1   
    47    26    45 1   
    48    26    46 1   
    49    26    47 1   
@<TRIPOS>SUBSTRUCTURE
     1 SBR         1 TEMP              0 ****  ****    0 ROOT
