@<TRIPOS>MOLECULE
SBS
   47    49     1     0     0
SMALL
bcc


@<TRIPOS>ATOM
      1 C01         -1.4200     0.3310     3.6300 c3         1 SBS       0.051300
      2 C02         -0.7500     0.2570     2.2570 c3         1 SBS      -0.100700
      3 C03         -1.8270    -0.0620     1.2180 c3         1 SBS       0.098000
      4 N04         -1.3280     0.0650    -0.1320 ns         1 SBS      -0.567900
      5 C05         -1.3600    -0.9060    -1.0560 c          1 SBS       0.677700
      6 O06         -1.8370    -2.0170    -0.8770 o          1 SBS      -0.586100
      7 C07         -0.7710    -0.5310    -2.3830 ca         1 SBS      -0.100600
      8 C08         -1.3600    -1.0420    -3.5370 ca         1 SBS      -0.114500
      9 C09         -0.8600    -0.7110    -4.7840 ca         1 SBS      -0.038000
     10 C10          0.2600     0.1060    -4.8660 ca         1 SBS      -0.247500
     11 C11          0.8850     0.5910    -3.7290 ca         1 SBS      -0.038000
     12 C12          0.3560     0.2780    -2.4860 ca         1 SBS      -0.114500
     13 S13          0.8990     0.5360    -6.4630 sy         1 SBS       1.265200
     14 O14          2.3180     0.8200    -6.3070 o          1 SBS      -0.609800
     15 O15          0.4910    -0.4700    -7.4330 o          1 SBS      -0.609800
     16 NP6          0.0060     1.8830    -6.8020 n8         1 SBS      -0.892700
     17 NP7         -0.5230     0.7510     4.6830 na         1 SBS      -0.061400
     18 C18         -0.1240     2.0450     4.8870 cc         1 SBS      -0.117100
     19 C19          0.7670     2.1110     5.9170 cd         1 SBS      -0.186200
     20 C20          0.1220    -0.0520     5.5840 ca         1 SBS      -0.043200
     21 C21          0.0570    -1.4330     5.7740 ca         1 SBS      -0.146000
     22 C22          0.8260    -1.9770     6.7850 ca         1 SBS      -0.111000
     23 C23          1.6470    -1.1740     7.5940 ca         1 SBS      -0.159000
     24 C24          1.7110     0.1920     7.4040 ca         1 SBS      -0.078000
     25 C25          0.9440     0.7730     6.3870 ca         1 SBS      -0.099800
     26 C26          0.3880    -0.7510     2.2230 c3         1 SBS      -0.088100
     27 HC11        -2.2570     1.0310     3.5990 h1         1 SBS       0.059200
     28 HC12        -1.8360    -0.6410     3.8990 h1         1 SBS       0.059200
     29 HC2         -0.3510     1.2530     2.0280 hc         1 SBS       0.050700
     30 HC31        -2.1990    -1.0770     1.3550 h1         1 SBS       0.058700
     31 HC32        -2.6770     0.6150     1.3450 h1         1 SBS       0.058700
     32 HN4         -1.0250     0.9840    -0.4130 hn         1 SBS       0.314500
     33 HC8         -2.2240    -1.6890    -3.4650 ha         1 SBS       0.148500
     34 HC9         -1.3380    -1.0940    -5.6750 ha         1 SBS       0.158500
     35 H11          1.7730     1.2050    -3.7940 ha         1 SBS       0.158500
     36 H12          0.8530     0.6530    -1.6000 ha         1 SBS       0.148500
     37 HN61        -0.0060     2.0810    -7.7980 hn         1 SBS       0.418800
     38 HN62         0.3170     2.7000    -6.2860 hn         1 SBS       0.418800
     39 H18         -0.5220     2.8380     4.2720 h4         1 SBS       0.157000
     40 H19          1.2350     3.0050     6.2980 ha         1 SBS       0.155000
     41 H21         -0.5680    -2.0650     5.1570 ha         1 SBS       0.131000
     42 H22          0.7940    -3.0450     6.9560 ha         1 SBS       0.128000
     43 H23          2.2330    -1.6370     8.3770 ha         1 SBS       0.129000
     44 H24          2.3460     0.8070     8.0300 ha         1 SBS       0.132000
     45 H261         0.0360    -1.7490     2.4950 hc         1 SBS       0.045033
     46 H262         0.8320    -0.8100     1.2290 hc         1 SBS       0.045033
     47 H263         1.1860    -0.4790     2.9150 hc         1 SBS       0.045033
@<TRIPOS>BOND
     1     1     2 1   
     2     1    17 1   
     3     1    27 1   
     4     1    28 1   
     5     2     3 1   
     6     2    26 1   
     7     2    29 1   
     8     3     4 1   
     9     3    30 1   
    10     3    31 1   
    11     4     5 1   
    12     4    32 1   
    13     5     6 2   
    14     5     7 1   
    15     7     8 ar  
    16     7    12 ar  
    17     8     9 ar  
    18     8    33 1   
    19     9    10 ar  
    20     9    34 1   
    21    10    11 ar  
    22    10    13 1   
    23    11    12 ar  
    24    11    35 1   
    25    12    36 1   
    26    13    14 2   
    27    13    15 2   
    28    13    16 1   
    29    16    37 1   
    30    16    38 1   
    31    17    18 1   
    32    17    20 1   
    33    18    19 2   
    34    18    39 1   
    35    19    25 1   
    36    19    40 1   
    37    20    21 ar  
    38    20    25 ar  
    39    21    22 ar  
    40    21    41 1   
    41    22    23 ar  
    42    22    42 1   
    43    23    24 ar  
    44    23    43 1   
    45    24    25 ar  
    46    24    44 1   
    47    26    45 1   
    48    26    46 1   
    49    26    47 1   
@<TRIPOS>SUBSTRUCTURE
     1 SBS         1 TEMP              0 ****  ****    0 ROOT
