@<TRIPOS>MOLECULE
SBS
   47    49     1     0     0
SMALL
No Charge or Current Charge


@<TRIPOS>ATOM
      1 C01         -1.3970     0.1910     3.7680 c3         1 SBS       0.080600
      2 C02         -0.7290     0.2120     2.3680 c3         1 SBS      -0.100700
      3 C03         -1.7560    -0.1830     1.2790 c3         1 SBS       0.098000
      4 N04         -1.2250    -0.0190    -0.0760 ns         1 SBS      -0.500900
      5 C05         -1.7770    -0.5880    -1.2050 c          1 SBS       0.610700
      6 O06         -2.7880    -1.2740    -1.1340 o          1 SBS      -0.586100
      7 C07         -1.0700    -0.3180    -2.5220 ca         1 SBS      -0.100600
      8 C08         -1.5950    -0.8640    -3.7160 ca         1 SBS      -0.096500
      9 C09         -0.9690    -0.6370    -4.9540 ca         1 SBS      -0.020000
     10 C10          0.2010     0.1420    -5.0210 ca         1 SBS      -0.247500
     11 C11          0.7350     0.6950    -3.8410 ca         1 SBS      -0.020000
     12 C12          0.1070     0.4670    -2.6030 ca         1 SBS      -0.096500
     13 S13          1.0050     0.4350    -6.6030 sy         1 SBS       1.123600
     14 O14          2.3990     0.8310    -6.4160 o          1 SBS      -0.539000
     15 O15          0.6060    -0.5690    -7.5870 o          1 SBS      -0.539000
     16 NP6          0.2890     1.8000    -7.1370 n8         1 SBS      -1.003100
     17 NP7         -0.5490     0.7350     4.8470 na         1 SBS      -0.090700
     18 C18         -0.3490     2.0970     5.1530 cc         1 SBS      -0.167100
     19 C19          0.5110     2.0810     6.2430 cd         1 SBS      -0.236200
     20 C20          0.1690    -0.0740     5.7270 ca         1 SBS      -0.043200
     21 C21          0.2780    -1.4740     5.7960 ca         1 SBS      -0.128000
     22 C22          1.0970    -2.0270     6.8060 ca         1 SBS      -0.093000
     23 C23          1.7840    -1.1850     7.7150 ca         1 SBS      -0.141000
     24 C24          1.6610     0.2170     7.6220 ca         1 SBS      -0.060000
     25 C25          0.8410     0.7280     6.6090 ca         1 SBS      -0.099800
     26 C26          0.5470    -0.6690     2.3100 c3         1 SBS      -0.088100
     27 HC11        -2.3110     0.7980     3.7320 h1         1 SBS       0.059200
     28 HC12        -1.7040    -0.8310     4.0180 h1         1 SBS       0.059200
     29 HC2         -0.4260     1.2480     2.1690 hc         1 SBS       0.050700
     30 HC31        -2.0560    -1.2300     1.4250 h1         1 SBS       0.058700
     31 HC32        -2.6530     0.4430     1.3740 h1         1 SBS       0.058700
     32 HN4         -0.3950     0.5430    -0.2030 hn         1 SBS       0.314500
     33 HC8         -2.4980    -1.4710    -3.6900 ha         1 SBS       0.130500
     34 HC9         -1.3990    -1.0690    -5.8560 ha         1 SBS       0.140500
     35 H11          1.6380     1.3040    -3.8760 ha         1 SBS       0.140500
     36 H12          0.5530     0.9100    -1.7170 ha         1 SBS       0.130500
     37 HN61        -0.0050     1.5030    -8.0650 hn         1 SBS       0.474000
     38 HN62         1.1070     2.3680    -7.3450 hn         1 SBS       0.474000
     39 H18         -0.8080     2.9110     4.6010 h4         1 SBS       0.207000
     40 H19          0.8810     2.9720     6.7460 ha         1 SBS       0.205000
     41 H21         -0.2440    -2.1230     5.0980 ha         1 SBS       0.113000
     42 H22          1.2010    -3.1070     6.8850 ha         1 SBS       0.110000
     43 H23          2.4120    -1.6220     8.4880 ha         1 SBS       0.111000
     44 H24          2.1840     0.8770     8.3110 ha         1 SBS       0.114000
     45 H261         0.3050    -1.7190     2.5140 hc         1 SBS       0.045033
     46 H262         1.0240    -0.6150     1.3240 hc         1 SBS       0.045033
     47 H263         1.2870    -0.3380     3.0480 hc         1 SBS       0.045033
@<TRIPOS>BOND
     1     1     2 1   
     2     1    17 1   
     3     1    27 1   
     4     1    28 1   
     5     2     3 1   
     6     2    26 1   
     7     2    29 1   
     8     3     4 1   
     9     3    30 1   
    10     3    31 1   
    11     4     5 1   
    12     4    32 1   
    13     5     6 2   
    14     5     7 1   
    15     7     8 ar  
    16     7    12 ar  
    17     8     9 ar  
    18     8    33 1   
    19     9    10 ar  
    20     9    34 1   
    21    10    11 ar  
    22    10    13 1   
    23    11    12 ar  
    24    11    35 1   
    25    12    36 1   
    26    13    14 2   
    27    13    15 2   
    28    13    16 1   
    29    16    37 1   
    30    16    38 1   
    31    17    18 1   
    32    17    20 1   
    33    18    19 2   
    34    18    39 1   
    35    19    25 1   
    36    19    40 1   
    37    20    21 ar  
    38    20    25 ar  
    39    21    22 ar  
    40    21    41 1   
    41    22    23 ar  
    42    22    42 1   
    43    23    24 ar  
    44    23    43 1   
    45    24    25 ar  
    46    24    44 1   
    47    26    45 1   
    48    26    46 1   
    49    26    47 1   
@<TRIPOS>SUBSTRUCTURE
     1 SBS         1 TEMP              0 ****  ****    0 ROOT
