@<TRIPOS>MOLECULE
SBT
   15    14     1     0     0
SMALL
No Charge or Current Charge


@<TRIPOS>ATOM
      1 C1           0.7400     0.0040    -1.8010 c3         1 SBT      -0.125100
      2 C2          -0.0040    -0.3410    -0.4970 c3         1 SBT       0.164300
      3 C3           0.6750     0.2770     0.7500 c3         1 SBT      -0.108400
      4 C4           0.0270    -0.1320     2.0910 c3         1 SBT      -0.084100
      5 OH          -1.3490     0.1350    -0.6010 oh         1 SBT      -0.656000
      6 H11          1.7680    -0.3750    -1.7680 hc         1 SBT       0.040367
      7 H12          0.2400    -0.4520    -2.6640 hc         1 SBT       0.040367
      8 H13          0.7800     1.0890    -1.9580 hc         1 SBT       0.040367
      9 H2          -0.0010    -1.4360    -0.3850 h1         1 SBT       0.069700
     10 H31          0.6730     1.3710     0.6680 hc         1 SBT       0.039700
     11 H32          1.7270    -0.0330     0.7680 hc         1 SBT       0.039700
     12 H41          0.5820     0.3020     2.9300 hc         1 SBT       0.035367
     13 H42         -1.0100     0.2190     2.1520 hc         1 SBT       0.035367
     14 H43          0.0310    -1.2230     2.2060 hc         1 SBT       0.035367
     15 HO          -1.2990     1.1140    -0.6610 ho         1 SBT       0.435000
@<TRIPOS>BOND
     1     1     2 1   
     2     1     6 1   
     3     1     7 1   
     4     1     8 1   
     5     2     3 1   
     6     2     5 1   
     7     2     9 1   
     8     3     4 1   
     9     3    10 1   
    10     3    11 1   
    11     4    12 1   
    12     4    13 1   
    13     4    14 1   
    14     5    15 1   
@<TRIPOS>SUBSTRUCTURE
     1 SBT         1 TEMP              0 ****  ****    0 ROOT
