@<TRIPOS>MOLECULE
SBT
   15    14     1     0     0
SMALL
bcc


@<TRIPOS>ATOM
      1 C1           0.7490     0.0180    -1.7700 c3         1 SBT      -0.125100
      2 C2          -0.0020    -0.3170    -0.4890 c3         1 SBT       0.141100
      3 C3           0.6910     0.2670     0.7380 c3         1 SBT      -0.108400
      4 C4           0.0320    -0.1150     2.0550 c3         1 SBT      -0.084100
      5 OH          -1.3610     0.0790    -0.5660 oh         1 SBT      -0.593800
      6 H11          1.7700    -0.3630    -1.7330 hc         1 SBT       0.040367
      7 H12          0.2600    -0.4200    -2.6410 hc         1 SBT       0.040367
      8 H13          0.8050     1.0990    -1.9220 hc         1 SBT       0.040367
      9 H2          -0.0310    -1.4070    -0.3790 h1         1 SBT       0.069700
     10 H31          0.7320     1.3580     0.6410 hc         1 SBT       0.039700
     11 H32          1.7310    -0.0720     0.7380 hc         1 SBT       0.039700
     12 H41          0.5820     0.2980     2.9020 hc         1 SBT       0.035367
     13 H42         -0.9920     0.2540     2.1160 hc         1 SBT       0.035367
     14 H43          0.0010    -1.1990     2.1810 hc         1 SBT       0.035367
     15 HO          -1.3850     1.0400    -0.6400 ho         1 SBT       0.396000
@<TRIPOS>BOND
     1     1     2 1   
     2     1     6 1   
     3     1     7 1   
     4     1     8 1   
     5     2     3 1   
     6     2     5 1   
     7     2     9 1   
     8     3     4 1   
     9     3    10 1   
    10     3    11 1   
    11     4    12 1   
    12     4    13 1   
    13     4    14 1   
    14     5    15 1   
@<TRIPOS>SUBSTRUCTURE
     1 SBT         1 TEMP              0 ****  ****    0 ROOT
