@<TRIPOS>MOLECULE
SBW
   35    36     1     0     0
SMALL
abcg2


@<TRIPOS>ATOM
      1 O04         -4.6330    -2.2040    -0.7200 o          1 SBW      -0.527000
      2 S01         -4.7940    -0.9540     0.0030 sy         1 SBW       1.143600
      3 O03         -5.7630     0.0310    -0.4430 o          1 SBW      -0.527000
      4 N02         -5.2040    -1.3530     1.5400 n8         1 SBW      -1.002100
      5 C16         -3.2040    -0.1620     0.0650 ca         1 SBW      -0.301500
      6 C15         -2.0560    -0.9350    -0.0250 ca         1 SBW      -0.025500
      7 C14         -0.8190    -0.3150     0.0360 ca         1 SBW      -0.094500
      8 C17         -3.1330     1.2160     0.2250 ca         1 SBW      -0.025500
      9 C18         -1.8910     1.8220     0.3020 ca         1 SBW      -0.094500
     10 C13         -0.7280     1.0650     0.1930 ca         1 SBW      -0.097600
     11 C12          0.5890     1.7730     0.2870 c          1 SBW       0.607700
     12 O02          0.7090     2.7840     0.9630 o          1 SBW      -0.591100
     13 N01          1.5920     1.2200    -0.4140 ns         1 SBW      -0.498900
     14 C11          2.9350     1.7540    -0.4450 c3         1 SBW       0.142300
     15 C09          3.9700     0.6590    -0.4370 ca         1 SBW      -0.074300
     16 C08          5.0060     0.6720    -1.3640 ca         1 SBW      -0.139000
     17 C07          5.9760    -0.3210    -1.3280 ca         1 SBW      -0.067000
     18 C06          5.9210    -1.3320    -0.3830 ca         1 SBW      -0.199000
     19 C05          4.8790    -1.3490     0.5440 ca         1 SBW       0.138100
     20 O01          4.7710    -2.3030     1.4910 oh         1 SBW      -0.534100
     21 C10          3.9070    -0.3550     0.5130 ca         1 SBW      -0.135000
     22 H1          -4.6010    -2.0490     1.9630 hn         1 SBW       0.479500
     23 H2          -5.3410    -0.5570     2.1530 hn         1 SBW       0.479500
     24 H3          -2.1110    -2.0080    -0.1430 ha         1 SBW       0.139500
     25 H4           0.0710    -0.9280    -0.0210 ha         1 SBW       0.132500
     26 H5          -4.0280     1.8190     0.2880 ha         1 SBW       0.139500
     27 H6          -1.8310     2.8940     0.4300 ha         1 SBW       0.132500
     28 H7           1.3810     0.4860    -1.0710 hn         1 SBW       0.320500
     29 H8           3.0720     2.3880    -1.3240 h1         1 SBW       0.066200
     30 H9           3.0620     2.3950     0.4280 h1         1 SBW       0.066200
     31 H10          5.0560     1.4530    -2.1120 ha         1 SBW       0.117000
     32 H11          6.7830    -0.3130    -2.0490 ha         1 SBW       0.116000
     33 H12          6.6810    -2.1050    -0.3660 ha         1 SBW       0.115000
     34 H13          5.5040    -2.9250     1.4250 ho         1 SBW       0.466000
     35 H14          3.1030    -0.3760     1.2400 ha         1 SBW       0.133000
@<TRIPOS>BOND
     1     1     2 2   
     2     2     3 2   
     3     2     4 1   
     4     2     5 1   
     5     4    22 1   
     6     4    23 1   
     7     5     6 ar  
     8     5     8 ar  
     9     6     7 ar  
    10     6    24 1   
    11     7    10 ar  
    12     7    25 1   
    13     8     9 ar  
    14     8    26 1   
    15     9    10 ar  
    16     9    27 1   
    17    10    11 1   
    18    11    12 2   
    19    11    13 1   
    20    13    14 1   
    21    13    28 1   
    22    14    15 1   
    23    14    29 1   
    24    14    30 1   
    25    15    16 ar  
    26    15    21 ar  
    27    16    17 ar  
    28    16    31 1   
    29    17    18 ar  
    30    17    32 1   
    31    18    19 ar  
    32    18    33 1   
    33    19    20 1   
    34    19    21 ar  
    35    20    34 1   
    36    21    35 1   
@<TRIPOS>SUBSTRUCTURE
     1 SBW         1 TEMP              0 ****  ****    0 ROOT
