@<TRIPOS>MOLECULE
SBW
   35    36     1     0     0
SMALL
No Charge or Current Charge


@<TRIPOS>ATOM
      1 O04         -4.8110    -2.2040    -0.8100 o          1 SBW      -0.527000
      2 S01         -4.9540    -0.8960    -0.1750 sy         1 SBW       1.143600
      3 O03         -5.9970     0.0610    -0.5450 o          1 SBW      -0.527000
      4 N02         -5.2360    -1.2520     1.3960 n8         1 SBW      -1.002100
      5 C16         -3.3560    -0.0840    -0.0730 ca         1 SBW      -0.301500
      6 C15         -2.1660    -0.8220    -0.2400 ca         1 SBW      -0.025500
      7 C14         -0.9170    -0.1820    -0.1580 ca         1 SBW      -0.094500
      8 C17         -3.2820     1.3000     0.1770 ca         1 SBW      -0.025500
      9 C18         -2.0320     1.9380     0.2590 ca         1 SBW      -0.094500
     10 C13         -0.8310     1.2110     0.0930 ca         1 SBW      -0.097600
     11 C12          0.4990     1.9370     0.1880 c          1 SBW       0.607700
     12 O02          0.5740     3.1390     0.4060 o          1 SBW      -0.591100
     13 N01          1.6360     1.1790     0.0170 ns         1 SBW      -0.498900
     14 C11          2.9960     1.7090     0.0740 c3         1 SBW       0.142300
     15 C09          4.0220     0.6080    -0.1460 ca         1 SBW      -0.074300
     16 C08          4.4610     0.2930    -1.4470 ca         1 SBW      -0.139000
     17 C07          5.4040    -0.7280    -1.6510 ca         1 SBW      -0.067000
     18 C06          5.9140    -1.4430    -0.5530 ca         1 SBW      -0.199000
     19 C05          5.4780    -1.1350     0.7450 ca         1 SBW       0.138100
     20 O01          5.9680    -1.8260     1.8120 oh         1 SBW      -0.534100
     21 C10          4.5360    -0.1150     0.9490 ca         1 SBW      -0.135000
     22 H1          -5.4030    -2.2540     1.3370 hn         1 SBW       0.479500
     23 H2          -4.3030    -1.1850     1.7960 hn         1 SBW       0.479500
     24 H3          -2.2010    -1.8930    -0.4360 ha         1 SBW       0.139500
     25 H4          -0.0250    -0.7870    -0.2930 ha         1 SBW       0.132500
     26 H5          -4.1890     1.8880     0.3110 ha         1 SBW       0.139500
     27 H6          -2.0020     3.0080     0.4530 ha         1 SBW       0.132500
     28 H7           1.5150     0.1920    -0.1610 hn         1 SBW       0.320500
     29 H8           3.1120     2.4840    -0.6960 h1         1 SBW       0.066200
     30 H9           3.1580     2.1790     1.0530 h1         1 SBW       0.066200
     31 H10          4.0690     0.8400    -2.3020 ha         1 SBW       0.117000
     32 H11          5.7390    -0.9660    -2.6590 ha         1 SBW       0.116000
     33 H12          6.6440    -2.2320    -0.7190 ha         1 SBW       0.115000
     34 H13          6.6090    -2.4910     1.4820 ho         1 SBW       0.466000
     35 H14          4.2030     0.1140     1.9580 ha         1 SBW       0.133000
@<TRIPOS>BOND
     1     1     2 2   
     2     2     3 2   
     3     2     4 1   
     4     2     5 1   
     5     4    22 1   
     6     4    23 1   
     7     5     6 ar  
     8     5     8 ar  
     9     6     7 ar  
    10     6    24 1   
    11     7    10 ar  
    12     7    25 1   
    13     8     9 ar  
    14     8    26 1   
    15     9    10 ar  
    16     9    27 1   
    17    10    11 1   
    18    11    12 2   
    19    11    13 1   
    20    13    14 1   
    21    13    28 1   
    22    14    15 1   
    23    14    29 1   
    24    14    30 1   
    25    15    16 ar  
    26    15    21 ar  
    27    16    17 ar  
    28    16    31 1   
    29    17    18 ar  
    30    17    32 1   
    31    18    19 ar  
    32    18    33 1   
    33    19    20 1   
    34    19    21 ar  
    35    20    34 1   
    36    21    35 1   
@<TRIPOS>SUBSTRUCTURE
     1 SBW         1 TEMP              0 ****  ****    0 ROOT
