@<TRIPOS>MOLECULE
SBX
   74    76     1     0     0
SMALL
No Charge or Current Charge


@<TRIPOS>ATOM
      1 C1          -1.0120    -0.4530     0.1080 c          1 SBX       0.609100
      2 C2          -0.5460     0.5190     1.2360 c6         1 SBX       0.048700
      3 C3           0.1540     1.8160     0.7300 c6         1 SBX      -0.085400
      4 C4           1.5590     1.5510     0.1260 c6         1 SBX      -0.075400
      5 C5           2.1830     0.2260     0.6320 c6         1 SBX      -0.087400
      6 C6           1.7730    -0.1080     2.0860 c6         1 SBX       0.103000
      7 N7           0.2940    -0.1390     2.2960 n          1 SBX      -0.366800
      8 O1          -1.3840    -1.5960     0.3450 o          1 SBX      -0.473000
      9 O2          -1.0180     0.1040    -1.1500 os         1 SBX      -0.451100
     10 C8          -0.2900    -0.7020     3.4610 c          1 SBX       0.503100
     11 O3          -1.5120    -0.7190     3.5990 o          1 SBX      -0.582100
     12 C9           0.6660    -1.3260     4.5800 c          1 SBX       0.509100
     13 O4           1.2040    -2.4160     4.3870 o          1 SBX      -0.480100
     14 C10          0.8930    -0.5020     5.9010 c3         1 SBX      -0.128000
     15 C11          1.9600    -1.2320     6.7940 c3         1 SBX      -0.066400
     16 C12          2.3400    -0.5530     8.1330 c3         1 SBX      -0.089100
     17 C13         -0.4600    -0.3900     6.6630 c3         1 SBX      -0.087600
     18 C14          1.3890     0.9260     5.5320 c3         1 SBX      -0.087600
     19 C15         -1.5280    -0.6460    -2.2720 c3         1 SBX       0.183300
     20 C16         -0.5730    -0.3600    -3.4570 c3         1 SBX      -0.083400
     21 C17          0.8400    -0.9570    -3.2720 c3         1 SBX      -0.031100
     22 C18          1.7540    -0.6330    -4.4460 ca         1 SBX      -0.080300
     23 C19          2.5600     0.5210    -4.4190 ca         1 SBX      -0.107500
     24 C20          3.4010     0.8240    -5.5040 ca         1 SBX      -0.109000
     25 C21          3.4380    -0.0250    -6.6230 ca         1 SBX      -0.111000
     26 C22          2.6340    -1.1770    -6.6560 ca         1 SBX      -0.109000
     27 C23          1.7940    -1.4800    -5.5710 ca         1 SBX      -0.107500
     28 C24         -3.0250    -0.2510    -2.5330 c6         1 SBX      -0.066700
     29 C25         -3.9840    -0.7550    -1.4140 c6         1 SBX      -0.073400
     30 C26         -5.4620    -0.4310    -1.7420 c6         1 SBX      -0.071900
     31 C27         -5.6600     1.0860    -1.9720 c6         1 SBX      -0.075400
     32 C28         -4.7160     1.6090    -3.0800 c6         1 SBX      -0.071900
     33 C29         -3.2350     1.2780    -2.7650 c6         1 SBX      -0.073400
     34 H2          -1.4880     0.8520     1.6920 h1         1 SBX       0.070700
     35 H31          0.2630     2.4990     1.5850 hc         1 SBX       0.062200
     36 H32         -0.4790     2.3520     0.0090 hc         1 SBX       0.062200
     37 H41          2.2200     2.3930     0.3730 hc         1 SBX       0.048200
     38 H42          1.4970     1.5270    -0.9710 hc         1 SBX       0.048200
     39 H51          3.2780     0.2730     0.5510 hc         1 SBX       0.058200
     40 H52          1.8690    -0.6010    -0.0190 hc         1 SBX       0.058200
     41 H61          2.2100     0.6440     2.7570 h1         1 SBX       0.045700
     42 H62          2.2050    -1.0830     2.3530 h1         1 SBX       0.045700
     43 H111         2.8830    -1.3600     6.2140 hc         1 SBX       0.049700
     44 H112         1.6030    -2.2440     7.0240 hc         1 SBX       0.049700
     45 H121         3.0920    -1.1560     8.6550 hc         1 SBX       0.034367
     46 H122         2.7700     0.4420     7.9720 hc         1 SBX       0.034367
     47 H123         1.4740    -0.4590     8.7980 hc         1 SBX       0.034367
     48 H131        -0.8470    -1.3830     6.9210 hc         1 SBX       0.045367
     49 H132        -0.3530     0.1840     7.5900 hc         1 SBX       0.045367
     50 H133        -1.2180     0.1240     6.0610 hc         1 SBX       0.045367
     51 H141         2.3780     0.8870     5.0580 hc         1 SBX       0.045367
     52 H142         0.6990     1.4280     4.8420 hc         1 SBX       0.045367
     53 H143         1.4680     1.5630     6.4210 hc         1 SBX       0.045367
     54 H15         -1.4910    -1.7290    -2.0890 h1         1 SBX       0.067700
     55 H161        -1.0100    -0.7700    -4.3750 hc         1 SBX       0.056200
     56 H162        -0.4820     0.7220    -3.6040 hc         1 SBX       0.056200
     57 H171         1.2800    -0.5740    -2.3450 hc         1 SBX       0.049200
     58 H172         0.7600    -2.0440    -3.1450 hc         1 SBX       0.049200
     59 H19          2.5350     1.1850    -3.5580 ha         1 SBX       0.110500
     60 H20          4.0210     1.7170    -5.4780 ha         1 SBX       0.111500
     61 H21          4.0890     0.2090    -7.4630 ha         1 SBX       0.112000
     62 H22          2.6620    -1.8350    -7.5220 ha         1 SBX       0.111500
     63 H23          1.1730    -2.3730    -5.6040 ha         1 SBX       0.110500
     64 H24         -3.3040    -0.7730    -3.4600 hc         1 SBX       0.046700
     65 H251        -3.8680    -1.8390    -1.2780 hc         1 SBX       0.051200
     66 H252        -3.7250    -0.2890    -0.4540 hc         1 SBX       0.051200
     67 H261        -5.7750    -0.9870    -2.6370 hc         1 SBX       0.035450
     68 H262        -6.1090    -0.7710    -0.9220 hc         1 SBX       0.035450
     69 H271        -6.7050     1.2890    -2.2450 hc         1 SBX       0.039200
     70 H272        -5.4700     1.6300    -1.0360 hc         1 SBX       0.039200
     71 H281        -4.9960     1.1630    -4.0450 hc         1 SBX       0.035450
     72 H282        -4.8380     2.6950    -3.1920 hc         1 SBX       0.035450
     73 H291        -2.9160     1.8410    -1.8770 hc         1 SBX       0.051200
     74 H292        -2.6110     1.6300    -3.5970 hc         1 SBX       0.051200
@<TRIPOS>BOND
     1     1     2 1   
     2     1     8 2   
     3     1     9 1   
     4     2     3 1   
     5     2     7 1   
     6     2    34 1   
     7     3     4 1   
     8     3    35 1   
     9     3    36 1   
    10     4     5 1   
    11     4    37 1   
    12     4    38 1   
    13     5     6 1   
    14     5    39 1   
    15     5    40 1   
    16     6     7 1   
    17     6    41 1   
    18     6    42 1   
    19     7    10 1   
    20     9    19 1   
    21    10    11 2   
    22    10    12 1   
    23    12    13 2   
    24    12    14 1   
    25    14    15 1   
    26    14    17 1   
    27    14    18 1   
    28    15    16 1   
    29    15    43 1   
    30    15    44 1   
    31    16    45 1   
    32    16    46 1   
    33    16    47 1   
    34    17    48 1   
    35    17    49 1   
    36    17    50 1   
    37    18    51 1   
    38    18    52 1   
    39    18    53 1   
    40    19    20 1   
    41    19    28 1   
    42    19    54 1   
    43    20    21 1   
    44    20    55 1   
    45    20    56 1   
    46    21    22 1   
    47    21    57 1   
    48    21    58 1   
    49    22    23 ar  
    50    22    27 ar  
    51    23    24 ar  
    52    23    59 1   
    53    24    25 ar  
    54    24    60 1   
    55    25    26 ar  
    56    25    61 1   
    57    26    27 ar  
    58    26    62 1   
    59    27    63 1   
    60    28    29 1   
    61    28    33 1   
    62    28    64 1   
    63    29    30 1   
    64    29    65 1   
    65    29    66 1   
    66    30    31 1   
    67    30    67 1   
    68    30    68 1   
    69    31    32 1   
    70    31    69 1   
    71    31    70 1   
    72    32    33 1   
    73    32    71 1   
    74    32    72 1   
    75    33    73 1   
    76    33    74 1   
@<TRIPOS>SUBSTRUCTURE
     1 SBX         1 TEMP              0 ****  ****    0 ROOT
