@<TRIPOS>MOLECULE
SBX
   74    76     1     0     0
SMALL
bcc


@<TRIPOS>ATOM
      1 C1           0.3330    -0.8160    -0.1890 c          1 SBX       0.658100
      2 C2           1.3360     0.0240     0.5940 c6         1 SBX       0.048700
      3 C3           2.6800    -0.1510    -0.1290 c6         1 SBX      -0.085400
      4 C4           3.8590     0.3560     0.6820 c6         1 SBX      -0.075400
      5 C5           3.8810    -0.3710     2.0140 c6         1 SBX      -0.087400
      6 C6           2.5970    -0.1000     2.7690 c6         1 SBX       0.103000
      7 N7           1.3990    -0.4160     1.9850 n          1 SBX      -0.433800
      8 O1           0.2680    -2.0150    -0.1120 o          1 SBX      -0.522000
      9 O2          -0.3270    -0.0650    -1.0530 os         1 SBX      -0.427900
     10 C8           0.2190    -0.5660     2.6160 c          1 SBX       0.570100
     11 O3          -0.8670    -0.4140     2.0810 o          1 SBX      -0.582100
     12 C9           0.2170    -1.0710     4.0620 c          1 SBX       0.509100
     13 O4           0.4790    -2.2370     4.2330 o          1 SBX      -0.480100
     14 C10         -0.2520    -0.1320     5.1620 c3         1 SBX      -0.128000
     15 C11          0.3350    -0.6210     6.5000 c3         1 SBX      -0.066400
     16 C12         -0.0490     0.2150     7.7140 c3         1 SBX      -0.089100
     17 C13         -1.7900    -0.2020     5.1860 c3         1 SBX      -0.087600
     18 C14          0.1880     1.3010     4.8560 c3         1 SBX      -0.087600
     19 C15         -1.1600    -0.6560    -2.0720 c3         1 SBX       0.160100
     20 C16         -0.7160    -0.0770    -3.4070 c3         1 SBX      -0.083400
     21 C17          0.7130    -0.4610    -3.7950 c3         1 SBX      -0.031100
     22 C18          1.0710     0.0680    -5.1560 ca         1 SBX      -0.080300
     23 C19          1.6530     1.3250    -5.3010 ca         1 SBX      -0.125500
     24 C20          1.9390     1.8380    -6.5590 ca         1 SBX      -0.127000
     25 C21          1.6430     1.0980    -7.6970 ca         1 SBX      -0.129000
     26 C22          1.0640    -0.1580    -7.5650 ca         1 SBX      -0.127000
     27 C23          0.7810    -0.6660    -6.3040 ca         1 SBX      -0.125500
     28 C24         -2.6340    -0.4040    -1.7560 c6         1 SBX      -0.066700
     29 C25         -3.1340    -1.2630    -0.5930 c6         1 SBX      -0.073400
     30 C26         -4.6310    -1.0750    -0.3700 c6         1 SBX      -0.071900
     31 C27         -4.9730     0.3920    -0.1340 c6         1 SBX      -0.075400
     32 C28         -4.4680     1.2610    -1.2810 c6         1 SBX      -0.071900
     33 C29         -2.9720     1.0690    -1.5120 c6         1 SBX      -0.073400
     34 H2           1.0450     1.0790     0.5550 h1         1 SBX       0.070700
     35 H31          2.6150     0.3710    -1.0860 hc         1 SBX       0.062200
     36 H32          2.8400    -1.2100    -0.3470 hc         1 SBX       0.062200
     37 H41          3.7790     1.4350     0.8440 hc         1 SBX       0.048200
     38 H42          4.7830     0.1840     0.1280 hc         1 SBX       0.048200
     39 H51          4.7130    -0.0390     2.6360 hc         1 SBX       0.058200
     40 H52          4.0040    -1.4460     1.8530 hc         1 SBX       0.058200
     41 H61          2.5740     0.9580     3.0530 h1         1 SBX       0.045700
     42 H62          2.5860    -0.6850     3.6870 h1         1 SBX       0.045700
     43 H111         1.4270    -0.6400     6.4200 hc         1 SBX       0.049700
     44 H112         0.0220    -1.6530     6.6690 hc         1 SBX       0.049700
     45 H121         0.4130    -0.2020     8.6090 hc         1 SBX       0.034367
     46 H122         0.2890     1.2480     7.6280 hc         1 SBX       0.034367
     47 H123        -1.1250     0.2300     7.8830 hc         1 SBX       0.034367
     48 H131        -2.1400    -1.2060     5.4290 hc         1 SBX       0.045367
     49 H132        -2.1740     0.4830     5.9420 hc         1 SBX       0.045367
     50 H133        -2.2240     0.0880     4.2300 hc         1 SBX       0.045367
     51 H141         1.2730     1.4110     4.8840 hc         1 SBX       0.045367
     52 H142        -0.1640     1.6420     3.8810 hc         1 SBX       0.045367
     53 H143        -0.2290     1.9870     5.5930 hc         1 SBX       0.045367
     54 H15         -0.9920    -1.7370    -2.0890 h1         1 SBX       0.067700
     55 H161        -1.4030    -0.4510    -4.1700 hc         1 SBX       0.056200
     56 H162        -0.8150     1.0120    -3.4070 hc         1 SBX       0.056200
     57 H171         1.4170    -0.0690    -3.0580 hc         1 SBX       0.049200
     58 H172         0.8130    -1.5500    -3.7800 hc         1 SBX       0.049200
     59 H19          1.8880     1.9080    -4.4170 ha         1 SBX       0.128500
     60 H20          2.3950     2.8160    -6.6520 ha         1 SBX       0.129500
     61 H21          1.8640     1.4960    -8.6780 ha         1 SBX       0.130000
     62 H22          0.8350    -0.7440    -8.4460 ha         1 SBX       0.129500
     63 H23          0.3320    -1.6490    -6.2110 ha         1 SBX       0.128500
     64 H24         -3.1770    -0.7270    -2.6550 hc         1 SBX       0.046700
     65 H251        -2.9070    -2.3160    -0.7850 hc         1 SBX       0.051200
     66 H252        -2.6030    -0.9870     0.3220 hc         1 SBX       0.051200
     67 H261        -5.1800    -1.4370    -1.2470 hc         1 SBX       0.035450
     68 H262        -4.9620    -1.6830     0.4760 hc         1 SBX       0.035450
     69 H271        -6.0510     0.5180    -0.0070 hc         1 SBX       0.039200
     70 H272        -4.5080     0.7230     0.8020 hc         1 SBX       0.039200
     71 H281        -5.0120     1.0010    -2.1960 hc         1 SBX       0.035450
     72 H282        -4.6810     2.3140    -1.0820 hc         1 SBX       0.035450
     73 H291        -2.4230     1.4240    -0.6330 hc         1 SBX       0.051200
     74 H292        -2.6480     1.6850    -2.3550 hc         1 SBX       0.051200
@<TRIPOS>BOND
     1     1     2 1   
     2     1     8 2   
     3     1     9 1   
     4     2     3 1   
     5     2     7 1   
     6     2    34 1   
     7     3     4 1   
     8     3    35 1   
     9     3    36 1   
    10     4     5 1   
    11     4    37 1   
    12     4    38 1   
    13     5     6 1   
    14     5    39 1   
    15     5    40 1   
    16     6     7 1   
    17     6    41 1   
    18     6    42 1   
    19     7    10 1   
    20     9    19 1   
    21    10    11 2   
    22    10    12 1   
    23    12    13 2   
    24    12    14 1   
    25    14    15 1   
    26    14    17 1   
    27    14    18 1   
    28    15    16 1   
    29    15    43 1   
    30    15    44 1   
    31    16    45 1   
    32    16    46 1   
    33    16    47 1   
    34    17    48 1   
    35    17    49 1   
    36    17    50 1   
    37    18    51 1   
    38    18    52 1   
    39    18    53 1   
    40    19    20 1   
    41    19    28 1   
    42    19    54 1   
    43    20    21 1   
    44    20    55 1   
    45    20    56 1   
    46    21    22 1   
    47    21    57 1   
    48    21    58 1   
    49    22    23 ar  
    50    22    27 ar  
    51    23    24 ar  
    52    23    59 1   
    53    24    25 ar  
    54    24    60 1   
    55    25    26 ar  
    56    25    61 1   
    57    26    27 ar  
    58    26    62 1   
    59    27    63 1   
    60    28    29 1   
    61    28    33 1   
    62    28    64 1   
    63    29    30 1   
    64    29    65 1   
    65    29    66 1   
    66    30    31 1   
    67    30    67 1   
    68    30    68 1   
    69    31    32 1   
    70    31    69 1   
    71    31    70 1   
    72    32    33 1   
    73    32    71 1   
    74    32    72 1   
    75    33    73 1   
    76    33    74 1   
@<TRIPOS>SUBSTRUCTURE
     1 SBX         1 TEMP              0 ****  ****    0 ROOT
