@<TRIPOS>MOLECULE
SBY
   59    58     1     0     0
SMALL
bcc


@<TRIPOS>ATOM
      1 O22          7.9860    -0.1000     1.2250 o          1 SBY      -0.674200
      2 S19          7.8230     0.7210     0.0100 s6         1 SBY       1.200800
      3 O20          8.6190     1.9630     0.0360 o          1 SBY      -0.674200
      4 O21          7.9890    -0.0520    -1.2360 o          1 SBY      -0.674200
      5 C18          6.1040     1.2680     0.0190 c3         1 SBY      -0.252600
      6 H181         5.9650     1.8770     0.9140 h1         1 SBY       0.077200
      7 H182         5.9710     1.9180    -0.8490 h1         1 SBY       0.077200
      8 C17          5.1310     0.1010    -0.0120 c3         1 SBY      -0.053400
      9 H171         5.3170    -0.4930    -0.9070 hc         1 SBY       0.071700
     10 H172         5.3130    -0.5370     0.8530 hc         1 SBY       0.071700
     11 C16          3.7130     0.6430    -0.0010 c3         1 SBY       0.127800
     12 H161         3.5450     1.2460     0.8930 hx         1 SBY       0.082700
     13 H162         3.5430     1.2830    -0.8680 hx         1 SBY       0.082700
     14 N13          2.6180    -0.3940    -0.0220 n4         1 SBY      -0.611800
     15 C15          2.7280    -1.2300    -1.2480 c3         1 SBY       0.105100
     16 H153         3.6710    -1.7670    -1.2400 hx         1 SBY       0.092533
     17 H152         1.9200    -1.9530    -1.2710 hx         1 SBY       0.092533
     18 H151         2.6780    -0.5880    -2.1240 hx         1 SBY       0.092533
     19 C14          2.7070    -1.2600     1.1840 c3         1 SBY       0.105100
     20 H143         2.6230    -0.6410     2.0740 hx         1 SBY       0.092533
     21 H142         1.9090    -1.9950     1.1660 hx         1 SBY       0.092533
     22 H141         3.6580    -1.7830     1.1890 hx         1 SBY       0.092533
     23 C12          1.3130     0.3690    -0.0250 c3         1 SBY       0.124800
     24 H121         1.3360     1.0060     0.8600 hx         1 SBY       0.088700
     25 H122         1.3450     1.0130    -0.9040 hx         1 SBY       0.088700
     26 C11          0.0500    -0.4700    -0.0310 c3         1 SBY      -0.099400
     27 H111         0.0060    -1.1110    -0.9140 hc         1 SBY       0.059700
     28 H112         0.0050    -1.1200     0.8450 hc         1 SBY       0.059700
     29 C10         -1.1780     0.4390    -0.0270 c3         1 SBY      -0.074400
     30 H101        -1.1470     1.0930     0.8500 hc         1 SBY       0.049700
     31 H102        -1.1550     1.0930    -0.9040 hc         1 SBY       0.049700
     32 C9          -2.4740    -0.3620    -0.0200 c3         1 SBY      -0.075400
     33 H91         -2.4970    -1.0220    -0.8940 hc         1 SBY       0.042200
     34 H92         -2.4870    -1.0190     0.8570 hc         1 SBY       0.042200
     35 C8          -3.7230     0.5100    -0.0120 c3         1 SBY      -0.073400
     36 H81         -3.7010     1.1690     0.8620 hc         1 SBY       0.041700
     37 H82         -3.7150     1.1660    -0.8890 hc         1 SBY       0.041700
     38 C7          -5.0100    -0.3070     0.0010 c3         1 SBY      -0.074400
     39 H71         -5.0260    -0.9690    -0.8720 hc         1 SBY       0.038700
     40 H72         -5.0120    -0.9640     0.8780 hc         1 SBY       0.038700
     41 C6          -6.2720     0.5460     0.0080 c3         1 SBY      -0.073400
     42 H61         -6.2560     1.2130     0.8780 hc         1 SBY       0.039700
     43 H62         -6.2770     1.1970    -0.8730 hc         1 SBY       0.039700
     44 C5          -7.5500    -0.2840     0.0310 c3         1 SBY      -0.074400
     45 H51         -7.5600    -0.9570    -0.8340 hc         1 SBY       0.037700
     46 H52         -7.5440    -0.9320     0.9160 hc         1 SBY       0.037700
     47 C4          -8.8210     0.5560     0.0320 c3         1 SBY      -0.074400
     48 H41         -8.8130     1.2260     0.8980 hc         1 SBY       0.037700
     49 H42         -8.8280     1.2040    -0.8520 hc         1 SBY       0.037700
     50 C3         -10.0920    -0.2840     0.0530 c3         1 SBY      -0.075400
     51 H31        -10.0980    -0.9540    -0.8150 hc         1 SBY       0.037700
     52 H32        -10.0820    -0.9350     0.9350 hc         1 SBY       0.037700
     53 C2         -11.3700     0.5460     0.0560 c3         1 SBY      -0.074400
     54 H21        -11.3660     1.2130     0.9240 hc         1 SBY       0.037200
     55 H22        -11.3800     1.1960    -0.8250 hc         1 SBY       0.037200
     56 C1         -12.6270    -0.3120     0.0740 c3         1 SBY      -0.089100
     57 H13        -13.5320     0.2970     0.0780 hc         1 SBY       0.032367
     58 H12        -12.6710    -0.9630    -0.8020 hc         1 SBY       0.032367
     59 H11        -12.6540    -0.9500     0.9590 hc         1 SBY       0.032367
@<TRIPOS>BOND
     1     1     2 1   
     2     2     3 1   
     3     2     4 1   
     4     2     5 1   
     5     5     6 1   
     6     5     7 1   
     7     5     8 1   
     8     8     9 1   
     9     8    10 1   
    10     8    11 1   
    11    11    12 1   
    12    11    13 1   
    13    11    14 1   
    14    14    15 1   
    15    14    19 1   
    16    14    23 1   
    17    15    16 1   
    18    15    17 1   
    19    15    18 1   
    20    19    20 1   
    21    19    21 1   
    22    19    22 1   
    23    23    24 1   
    24    23    25 1   
    25    23    26 1   
    26    26    27 1   
    27    26    28 1   
    28    26    29 1   
    29    29    30 1   
    30    29    31 1   
    31    29    32 1   
    32    32    33 1   
    33    32    34 1   
    34    32    35 1   
    35    35    36 1   
    36    35    37 1   
    37    35    38 1   
    38    38    39 1   
    39    38    40 1   
    40    38    41 1   
    41    41    42 1   
    42    41    43 1   
    43    41    44 1   
    44    44    45 1   
    45    44    46 1   
    46    44    47 1   
    47    47    48 1   
    48    47    49 1   
    49    47    50 1   
    50    50    51 1   
    51    50    52 1   
    52    50    53 1   
    53    53    54 1   
    54    53    55 1   
    55    53    56 1   
    56    56    57 1   
    57    56    58 1   
    58    56    59 1   
@<TRIPOS>SUBSTRUCTURE
     1 SBY         1 TEMP              0 ****  ****    0 ROOT
