@<TRIPOS>MOLECULE
SBY
   59    58     1     0     0
SMALL
No Charge or Current Charge


@<TRIPOS>ATOM
      1 O22          8.1670     0.0260     1.2060 o          1 SBY      -0.674200
      2 S19          8.0300     0.8180    -0.0240 s6         1 SBY       1.311600
      3 O20          8.7630     2.0920    -0.0150 o          1 SBY      -0.674200
      4 O21          8.1580     0.0480    -1.2680 o          1 SBY      -0.674200
      5 C18          6.2950     1.3340    -0.0130 c3         1 SBY      -0.363400
      6 H181         6.1660     1.9460     0.8860 h1         1 SBY       0.077200
      7 H182         6.1590     1.9620    -0.9000 h1         1 SBY       0.077200
      8 C17          5.2870     0.1570    -0.0200 c3         1 SBY      -0.053400
      9 H171         5.4560    -0.4630    -0.9080 hc         1 SBY       0.071700
     10 H172         5.4620    -0.4780     0.8570 hc         1 SBY       0.071700
     11 C16          3.8240     0.6500    -0.0100 c3         1 SBY       0.099600
     12 H161         3.6800     1.2700     0.8780 hx         1 SBY       0.082700
     13 H162         3.6730     1.2860    -0.8850 hx         1 SBY       0.082700
     14 N13          2.7020    -0.4020    -0.0160 n4         1 SBY      -0.499000
     15 C15          2.8060    -1.2710    -1.2810 c3         1 SBY       0.076900
     16 H153         3.7670    -1.7890    -1.2860 hx         1 SBY       0.092533
     17 H152         1.9990    -2.0050    -1.2820 hx         1 SBY       0.092533
     18 H151         2.7260    -0.6320    -2.1630 hx         1 SBY       0.092533
     19 C14          2.8150    -1.2930     1.2330 c3         1 SBY       0.076900
     20 H143         2.7410    -0.6710     2.1270 hx         1 SBY       0.092533
     21 H142         2.0080    -2.0280     1.2270 hx         1 SBY       0.092533
     22 H141         3.7760    -1.8110     1.2220 hx         1 SBY       0.092533
     23 C12          1.3590     0.3450    -0.0040 c3         1 SBY       0.096600
     24 H121         1.3520     0.9820     0.8840 hx         1 SBY       0.088700
     25 H122         1.3450     0.9990    -0.8790 hx         1 SBY       0.088700
     26 C11          0.0630    -0.4950    -0.0070 c3         1 SBY      -0.099400
     27 H111         0.0440    -1.1360    -0.8960 hc         1 SBY       0.059700
     28 H112         0.0500    -1.1530     0.8690 hc         1 SBY       0.059700
     29 C10         -1.2040     0.3850     0.0060 c3         1 SBY      -0.074400
     30 H101        -1.1850     1.0300     0.8940 hc         1 SBY       0.049700
     31 H102        -1.1920     1.0470    -0.8700 hc         1 SBY       0.049700
     32 C9          -2.5100    -0.4380     0.0020 c3         1 SBY      -0.075400
     33 H91         -2.5280    -1.0830    -0.8860 hc         1 SBY       0.042200
     34 H92         -2.5220    -1.1000     0.8780 hc         1 SBY       0.042200
     35 C8          -3.7790     0.4420     0.0150 c3         1 SBY      -0.073400
     36 H81         -3.7620     1.0860     0.9040 hc         1 SBY       0.041700
     37 H82         -3.7680     1.1030    -0.8600 hc         1 SBY       0.041700
     38 C7          -5.0850    -0.3820     0.0120 c3         1 SBY      -0.074400
     39 H71         -5.1030    -1.0260    -0.8760 hc         1 SBY       0.038700
     40 H72         -5.0970    -1.0430     0.8880 hc         1 SBY       0.038700
     41 C6          -6.3550     0.4980     0.0250 c3         1 SBY      -0.073400
     42 H61         -6.3370     1.1420     0.9130 hc         1 SBY       0.039700
     43 H62         -6.3440     1.1600    -0.8500 hc         1 SBY       0.039700
     44 C5          -7.6610    -0.3250     0.0220 c3         1 SBY      -0.074400
     45 H51         -7.6780    -0.9690    -0.8670 hc         1 SBY       0.037700
     46 H52         -7.6720    -0.9870     0.8970 hc         1 SBY       0.037700
     47 C4          -8.9300     0.5540     0.0350 c3         1 SBY      -0.074400
     48 H41         -8.9130     1.1980     0.9230 hc         1 SBY       0.037700
     49 H42         -8.9190     1.2160    -0.8410 hc         1 SBY       0.037700
     50 C3         -10.2370    -0.2690     0.0320 c3         1 SBY      -0.075400
     51 H31        -10.2540    -0.9130    -0.8570 hc         1 SBY       0.037700
     52 H32        -10.2480    -0.9310     0.9070 hc         1 SBY       0.037700
     53 C2         -11.5060     0.6100     0.0450 c3         1 SBY      -0.074400
     54 H21        -11.4930     1.2540     0.9330 hc         1 SBY       0.037200
     55 H22        -11.5000     1.2720    -0.8310 hc         1 SBY       0.037200
     56 C1         -12.8100    -0.2110     0.0410 c3         1 SBY      -0.089100
     57 H13        -13.6810     0.4540     0.0510 hc         1 SBY       0.032367
     58 H12        -12.8690    -0.8410    -0.8550 hc         1 SBY       0.032367
     59 H11        -12.8630    -0.8590     0.9250 hc         1 SBY       0.032367
@<TRIPOS>BOND
     1     1     2 1   
     2     2     3 1   
     3     2     4 1   
     4     2     5 1   
     5     5     6 1   
     6     5     7 1   
     7     5     8 1   
     8     8     9 1   
     9     8    10 1   
    10     8    11 1   
    11    11    12 1   
    12    11    13 1   
    13    11    14 1   
    14    14    15 1   
    15    14    19 1   
    16    14    23 1   
    17    15    16 1   
    18    15    17 1   
    19    15    18 1   
    20    19    20 1   
    21    19    21 1   
    22    19    22 1   
    23    23    24 1   
    24    23    25 1   
    25    23    26 1   
    26    26    27 1   
    27    26    28 1   
    28    26    29 1   
    29    29    30 1   
    30    29    31 1   
    31    29    32 1   
    32    32    33 1   
    33    32    34 1   
    34    32    35 1   
    35    35    36 1   
    36    35    37 1   
    37    35    38 1   
    38    38    39 1   
    39    38    40 1   
    40    38    41 1   
    41    41    42 1   
    42    41    43 1   
    43    41    44 1   
    44    44    45 1   
    45    44    46 1   
    46    44    47 1   
    47    47    48 1   
    48    47    49 1   
    49    47    50 1   
    50    50    51 1   
    51    50    52 1   
    52    50    53 1   
    53    53    54 1   
    54    53    55 1   
    55    53    56 1   
    56    56    57 1   
    57    56    58 1   
    58    56    59 1   
@<TRIPOS>SUBSTRUCTURE
     1 SBY         1 TEMP              0 ****  ****    0 ROOT
