@<TRIPOS>MOLECULE
SC0
   55    54     1     0     0
SMALL
No Charge or Current Charge


@<TRIPOS>ATOM
      1 CAA          9.7770     0.7430     0.2970 c3         1 SC0      -0.079100
      2 CAM          8.3820     0.1940     0.6560 c3         1 SC0      -0.083400
      3 CAS          7.3840     0.2590    -0.5200 c3         1 SC0      -0.058400
      4 CAU          5.9860    -0.2930    -0.1610 c3         1 SC0      -0.106900
      5 CAO          4.9860    -0.2320    -1.3330 c3         1 SC0       0.027300
      6 CAI          3.6310    -0.7880    -0.9570 c2         1 SC0      -0.397700
      7 CAK          2.4770    -0.0940    -0.9390 c2         1 SC0      -0.045700
      8 CAQ          1.1190    -0.6810    -0.5680 c3         1 SC0       0.030300
      9 CAW         -0.0010     0.2710    -0.0090 c3         1 SC0      -0.638000
     10 PAX          0.6610     1.4080     1.2560 p5         1 SC0       1.354000
     11 OAE          1.4560     0.5770     2.2100 o          1 SC0      -0.965667
     12 OAF          1.5580     2.4660     0.7060 o          1 SC0      -0.965667
     13 OAC         -0.4200     2.0430     2.0660 o          1 SC0      -0.965667
     14 PAY         -0.6560     1.3500    -1.3280 p5         1 SC0       1.354000
     15 OAG         -1.4550     0.4790    -2.2410 o          1 SC0      -0.965667
     16 OAH         -1.5470     2.4380    -0.8290 o          1 SC0      -0.965667
     17 OAD          0.4290     1.9400    -2.1660 o          1 SC0      -0.965667
     18 CAR         -1.1250    -0.6470     0.5940 c3         1 SC0       0.030300
     19 CAL         -2.4800    -0.0350     0.9360 c2         1 SC0      -0.045700
     20 CAJ         -3.6380    -0.7210     0.9870 c2         1 SC0      -0.397700
     21 CAP         -4.9900    -0.1410     1.3360 c3         1 SC0       0.027300
     22 CAV         -5.9900    -0.2520     0.1670 c3         1 SC0      -0.106900
     23 CAT         -7.3850     0.3250     0.5000 c3         1 SC0      -0.058400
     24 CAN         -8.3840     0.2090    -0.6730 c3         1 SC0      -0.083400
     25 CAB         -9.7750     0.7820    -0.3410 c3         1 SC0      -0.079100
     26 HAA1         9.7130     1.7950    -0.0070 hc         1 SC0       0.000533
     27 HAA2        10.4470     0.6760     1.1620 hc         1 SC0       0.000533
     28 HAA3        10.2190     0.1700    -0.5260 hc         1 SC0       0.000533
     29 HAM1         8.4850    -0.8460     0.9900 hc         1 SC0       0.050200
     30 HAM2         7.9830     0.7640     1.5040 hc         1 SC0       0.050200
     31 HAS1         7.2850     1.3010    -0.8510 hc         1 SC0      -0.001300
     32 HAS2         7.7890    -0.3100    -1.3670 hc         1 SC0      -0.001300
     33 HAU1         6.0830    -1.3340     0.1730 hc         1 SC0       0.092950
     34 HAU2         5.5780     0.2750     0.6840 hc         1 SC0       0.092950
     35 HAO1         4.8900     0.8080    -1.6680 hc         1 SC0      -0.025550
     36 HAO2         5.3900    -0.7990    -2.1810 hc         1 SC0      -0.025550
     37 HAI          3.6340    -1.8470    -0.6960 ha         1 SC0       0.142000
     38 HAK          2.4730     0.9640    -1.2020 ha         1 SC0       0.227500
     39 HAQ1         0.7200    -1.1950    -1.4510 hc         1 SC0      -0.013550
     40 HAQ2         1.2920    -1.4810     0.1630 hc         1 SC0      -0.013550
     41 HAR1        -1.3030    -1.4800    -0.0980 hc         1 SC0      -0.013550
     42 HAR2        -0.7290    -1.1210     1.5010 hc         1 SC0      -0.013550
     43 HAL         -2.4700     1.0330     1.1490 ha         1 SC0       0.227500
     44 HAJ         -3.6470    -1.7910     0.7770 ha         1 SC0       0.142000
     45 HAP1        -5.3970    -0.6640     2.2090 hc         1 SC0      -0.025550
     46 HAP2        -4.8880     0.9130     1.6200 hc         1 SC0      -0.025550
     47 HAV1        -5.5790     0.2730    -0.7040 hc         1 SC0       0.092950
     48 HAV2        -6.0930    -1.3070    -0.1170 hc         1 SC0       0.092950
     49 HAT1        -7.7930    -0.2010     1.3720 hc         1 SC0      -0.001300
     50 HAT2        -7.2810     1.3800     0.7810 hc         1 SC0      -0.001300
     51 HAN1        -7.9810     0.7360    -1.5470 hc         1 SC0       0.050200
     52 HAN2        -8.4920    -0.8450    -0.9560 hc         1 SC0       0.050200
     53 HAB1       -10.2200     0.2510     0.5090 hc         1 SC0       0.000533
     54 HAB2        -9.7050     1.8470    -0.0870 hc         1 SC0       0.000533
     55 HAB3       -10.4460     0.6770    -1.2010 hc         1 SC0       0.000533
@<TRIPOS>BOND
     1     1     2 1   
     2     1    26 1   
     3     1    27 1   
     4     1    28 1   
     5     2     3 1   
     6     2    29 1   
     7     2    30 1   
     8     3     4 1   
     9     3    31 1   
    10     3    32 1   
    11     4     5 1   
    12     4    33 1   
    13     4    34 1   
    14     5     6 1   
    15     5    35 1   
    16     5    36 1   
    17     6     7 2   
    18     6    37 1   
    19     7     8 1   
    20     7    38 1   
    21     8     9 1   
    22     8    39 1   
    23     8    40 1   
    24     9    10 1   
    25     9    14 1   
    26     9    18 1   
    27    10    11 1   
    28    10    12 1   
    29    10    13 1   
    30    14    15 1   
    31    14    16 1   
    32    14    17 1   
    33    18    19 1   
    34    18    41 1   
    35    18    42 1   
    36    19    20 2   
    37    19    43 1   
    38    20    21 1   
    39    20    44 1   
    40    21    22 1   
    41    21    45 1   
    42    21    46 1   
    43    22    23 1   
    44    22    47 1   
    45    22    48 1   
    46    23    24 1   
    47    23    49 1   
    48    23    50 1   
    49    24    25 1   
    50    24    51 1   
    51    24    52 1   
    52    25    53 1   
    53    25    54 1   
    54    25    55 1   
@<TRIPOS>SUBSTRUCTURE
     1 SC0         1 TEMP              0 ****  ****    0 ROOT
