@<TRIPOS>MOLECULE
SC0
   55    54     1     0     0
SMALL
abcg2


@<TRIPOS>ATOM
      1 CAA          7.7910     2.9060     0.1820 c3         1 SC0      -0.079100
      2 CAM          6.6070     2.0340     0.5770 c3         1 SC0      -0.083400
      3 CAS          6.3010     0.9460    -0.4460 c3         1 SC0      -0.058400
      4 CAU          5.1240     0.0620    -0.0540 c3         1 SC0      -0.106900
      5 CAO          4.7480    -0.9590    -1.1300 c3         1 SC0       0.027300
      6 CAI          3.5110    -1.7090    -0.7440 c2         1 SC0      -0.397700
      7 CAK          2.2940    -1.3840    -1.1630 c2         1 SC0      -0.045700
      8 CAQ          1.0260    -2.0010    -0.6780 c3         1 SC0       0.030300
      9 CAW          0.0010    -1.0400    -0.0290 c3         1 SC0      -0.638000
     10 PAX          0.8770    -0.0530     1.3060 p5         1 SC0       1.354000
     11 OAE          1.7100    -1.1030     2.0740 o          1 SC0      -0.965667
     12 OAF          1.7260     1.0320     0.6270 o          1 SC0      -0.965667
     13 OAC         -0.1980     0.5630     2.2310 o          1 SC0      -0.965667
     14 PAY         -0.8730    -0.0880    -1.3910 p5         1 SC0       1.354000
     15 OAG         -1.6920    -1.1640    -2.1370 o          1 SC0      -0.965667
     16 OAH         -1.7370     1.0070    -0.7460 o          1 SC0      -0.965667
     17 OAD          0.2030     0.5140    -2.3240 o          1 SC0      -0.965667
     18 CAR         -1.0260    -1.9830     0.6420 c3         1 SC0       0.030300
     19 CAL         -2.2850    -1.3480     1.1240 c2         1 SC0      -0.045700
     20 CAJ         -3.5130    -1.6900     0.7510 c2         1 SC0      -0.397700
     21 CAP         -4.7340    -0.9190     1.1470 c3         1 SC0       0.027300
     22 CAV         -5.1690     0.0380     0.0340 c3         1 SC0      -0.106900
     23 CAT         -6.2470     1.0180     0.4790 c3         1 SC0      -0.058400
     24 CAN         -6.7120     1.9580    -0.6260 c3         1 SC0      -0.083400
     25 CAB         -7.7470     2.9670    -0.1480 c3         1 SC0      -0.079100
     26 HAA1         7.6200     3.3910    -0.7810 hc         1 SC0       0.000533
     27 HAA2         7.9780     3.6900     0.9170 hc         1 SC0       0.000533
     28 HAA3         8.7050     2.3140     0.0920 hc         1 SC0       0.000533
     29 HAM1         6.8000     1.5740     1.5510 hc         1 SC0       0.050200
     30 HAM2         5.7190     2.6600     0.7100 hc         1 SC0       0.050200
     31 HAS1         6.0970     1.4150    -1.4150 hc         1 SC0      -0.001300
     32 HAS2         7.1940     0.3270    -0.5950 hc         1 SC0      -0.001300
     33 HAU1         5.3600    -0.4630     0.8790 hc         1 SC0       0.092950
     34 HAU2         4.2310     0.6580     0.1600 hc         1 SC0       0.092950
     35 HAO1         4.5780    -0.4290    -2.0730 hc         1 SC0      -0.025550
     36 HAO2         5.5930    -1.6370    -1.3050 hc         1 SC0      -0.025550
     37 HAI          3.6200    -2.4600     0.0360 ha         1 SC0       0.142000
     38 HAK          2.1650    -0.5900    -1.8900 ha         1 SC0       0.227500
     39 HAQ1         0.5230    -2.5010    -1.5180 hc         1 SC0      -0.013550
     40 HAQ2         1.2780    -2.7900     0.0390 hc         1 SC0      -0.013550
     41 HAR1        -1.2860    -2.7830    -0.0590 hc         1 SC0      -0.013550
     42 HAR2        -0.5220    -2.4700     1.4890 hc         1 SC0      -0.013550
     43 HAL         -2.1410    -0.5260     1.8150 ha         1 SC0       0.227500
     44 HAJ         -3.6470    -2.4760     0.0100 ha         1 SC0       0.142000
     45 HAP1        -5.5680    -1.5810     1.4070 hc         1 SC0      -0.025550
     46 HAP2        -4.5140    -0.3340     2.0470 hc         1 SC0      -0.025550
     47 HAV1        -4.2760     0.5680    -0.3130 hc         1 SC0       0.092950
     48 HAV2        -5.5340    -0.5410    -0.8220 hc         1 SC0       0.092950
     49 HAT1        -7.1110     0.4670     0.8710 hc         1 SC0      -0.001300
     50 HAT2        -5.8660     1.6110     1.3190 hc         1 SC0      -0.001300
     51 HAN1        -5.8480     2.4860    -1.0390 hc         1 SC0       0.050200
     52 HAN2        -7.1280     1.3700    -1.4500 hc         1 SC0       0.050200
     53 HAB1        -8.6300     2.4650     0.2540 hc         1 SC0       0.000533
     54 HAB2        -7.3430     3.6020     0.6430 hc         1 SC0       0.000533
     55 HAB3        -8.0780     3.6190    -0.9580 hc         1 SC0       0.000533
@<TRIPOS>BOND
     1     1     2 1   
     2     1    26 1   
     3     1    27 1   
     4     1    28 1   
     5     2     3 1   
     6     2    29 1   
     7     2    30 1   
     8     3     4 1   
     9     3    31 1   
    10     3    32 1   
    11     4     5 1   
    12     4    33 1   
    13     4    34 1   
    14     5     6 1   
    15     5    35 1   
    16     5    36 1   
    17     6     7 2   
    18     6    37 1   
    19     7     8 1   
    20     7    38 1   
    21     8     9 1   
    22     8    39 1   
    23     8    40 1   
    24     9    10 1   
    25     9    14 1   
    26     9    18 1   
    27    10    11 1   
    28    10    12 1   
    29    10    13 1   
    30    14    15 1   
    31    14    16 1   
    32    14    17 1   
    33    18    19 1   
    34    18    41 1   
    35    18    42 1   
    36    19    20 2   
    37    19    43 1   
    38    20    21 1   
    39    20    44 1   
    40    21    22 1   
    41    21    45 1   
    42    21    46 1   
    43    22    23 1   
    44    22    47 1   
    45    22    48 1   
    46    23    24 1   
    47    23    49 1   
    48    23    50 1   
    49    24    25 1   
    50    24    51 1   
    51    24    52 1   
    52    25    53 1   
    53    25    54 1   
    54    25    55 1   
@<TRIPOS>SUBSTRUCTURE
     1 SC0         1 TEMP              0 ****  ****    0 ROOT
