@<TRIPOS>MOLECULE
SC1
   35    35     1     0     0
SMALL
abcg2


@<TRIPOS>ATOM
      1 C1          56.3880    11.9680    27.8080 ce         1 SC1      -0.182400
      2 C2          55.3000    11.2580    28.1210 c2         1 SC1      -0.238200
      3 C3          55.2970    10.0440    29.0110 c6         1 SC1       0.284500
      4 C4          56.6040     9.9790    29.7990 c6         1 SC1       0.157300
      5 C5          57.7920    10.1700    28.8600 c6         1 SC1       0.141300
      6 C6          57.7520    11.5990    28.3330 c6         1 SC1      -0.032200
      7 C7          56.2720    13.2130    26.9310 c          1 SC1       0.706200
      8 O1          55.1140     8.8660    28.2250 os         1 SC1      -0.566400
      9 O2          56.6980     8.7670    30.5380 oh         1 SC1      -0.744000
     10 O3          58.9770     9.9010    29.6050 os         1 SC1      -0.487000
     11 O4          55.2170    13.3800    26.2640 o          1 SC1      -0.802500
     12 O5          57.2520    14.0060    26.9530 o          1 SC1      -0.802500
     13 P1          53.6060     8.1120    28.2210 p5         1 SC1       1.316900
     14 O6          52.6350     9.1200    27.6120 o          1 SC1      -0.965833
     15 O7          53.2910     7.7840    29.6780 o          1 SC1      -0.965833
     16 O8          53.8850     6.8950    27.3480 o          1 SC1      -0.965833
     17 C8          60.0210     9.0520    29.0320 c3         1 SC1      -0.208000
     18 C9          59.4570     7.6450    28.8320 c3         1 SC1      -0.054100
     19 C10         61.1490     9.0400    30.1070 c          1 SC1       0.752000
     20 O9          61.4070    10.1130    30.7120 o          1 SC1      -0.822000
     21 O10         61.7450     7.9470    30.3060 o          1 SC1      -0.822000
     22 P2          60.7160     9.7090    27.3700 p5         1 SC1       1.318500
     23 O11         61.9560     8.8450    27.1030 o          1 SC1      -0.946500
     24 O12         61.0550    11.1880    27.5670 o          1 SC1      -0.946500
     25 O13         59.5990     9.4760    26.3450 o          1 SC1      -0.946500
     26 H2          54.3450    11.5400    27.6950 ha         1 SC1       0.164000
     27 H3          54.4710    10.1170    29.7270 h1         1 SC1      -0.013300
     28 H4          56.5970    10.8250    30.5020 h1         1 SC1      -0.044300
     29 H5          57.7090     9.4770    28.0240 h1         1 SC1       0.112700
     30 H61         58.5090    11.7220    27.5630 hc         1 SC1       0.058200
     31 H62         58.0350    12.2770    29.1470 hc         1 SC1       0.058200
     32 HO2         57.6460     8.6680    30.7170 ho         1 SC1       0.499000
     33 H91         60.2150     6.9960    28.3990 hc         1 SC1      -0.003633
     34 H92         59.1460     7.2100    29.7860 hc         1 SC1      -0.003633
     35 H93         58.6030     7.6590    28.1570 hc         1 SC1      -0.003633
@<TRIPOS>BOND
     1     1     2 2   
     2     1     6 1   
     3     1     7 1   
     4     2     3 1   
     5     2    26 1   
     6     3     4 1   
     7     3     8 1   
     8     3    27 1   
     9     4     5 1   
    10     4     9 1   
    11     4    28 1   
    12     5     6 1   
    13     5    10 1   
    14     5    29 1   
    15     6    30 1   
    16     6    31 1   
    17     7    11 1   
    18     7    12 1   
    19     8    13 1   
    20     9    32 1   
    21    10    17 1   
    22    13    14 1   
    23    13    15 1   
    24    13    16 1   
    25    17    18 1   
    26    17    19 1   
    27    17    22 1   
    28    18    33 1   
    29    18    34 1   
    30    18    35 1   
    31    19    20 1   
    32    19    21 1   
    33    22    23 1   
    34    22    24 1   
    35    22    25 1   
@<TRIPOS>SUBSTRUCTURE
     1 SC1         1 TEMP              0 ****  ****    0 ROOT
