@<TRIPOS>MOLECULE
SC1
   35    35     1     0     0
SMALL
No Charge or Current Charge


@<TRIPOS>ATOM
      1 C1          56.3260    12.0640    27.7990 ce         1 SC1      -0.182400
      2 C2          55.2230    11.3090    28.0780 c2         1 SC1      -0.238200
      3 C3          55.2160    10.0500    28.9410 c6         1 SC1       0.284500
      4 C4          56.5290     9.9520    29.8020 c6         1 SC1       0.157300
      5 C5          57.7630    10.2160    28.8970 c6         1 SC1       0.141300
      6 C6          57.7110    11.6750    28.3710 c6         1 SC1      -0.032200
      7 C7          56.2580    13.3120    26.9350 c          1 SC1       0.706200
      8 O1          55.0170     8.9070    28.0860 os         1 SC1      -0.566400
      9 O2          56.7140     8.7080    30.5000 oh         1 SC1      -0.744000
     10 O3          58.9900     9.9550    29.6490 os         1 SC1      -0.487000
     11 O4          55.1830    13.6420    26.4570 o          1 SC1      -0.802500
     12 O5          57.2710    13.9710    26.7550 o          1 SC1      -0.802500
     13 P1          53.6280     8.0920    28.1710 p5         1 SC1       1.316900
     14 O6          52.4900     8.9840    27.8110 o          1 SC1      -0.965833
     15 O7          53.4120     7.5340    29.5350 o          1 SC1      -0.965833
     16 O8          53.6730     6.9660    27.1970 o          1 SC1      -0.965833
     17 C8          60.0500     9.0610    29.0970 c3         1 SC1      -0.208000
     18 C9          59.4520     7.6210    29.0230 c3         1 SC1      -0.054100
     19 C10         61.3560     9.1170    29.9540 c          1 SC1       0.752000
     20 O9          61.5430    10.0820    30.6880 o          1 SC1      -0.822000
     21 O10         62.0190     8.0970    30.1110 o          1 SC1      -0.822000
     22 P2          60.7980     9.5780    27.4490 p5         1 SC1       1.318500
     23 O11         61.9100     8.6670    27.0390 o          1 SC1      -0.946500
     24 O12         61.3200    10.9780    27.5090 o          1 SC1      -0.946500
     25 O13         59.7470     9.5090    26.3880 o          1 SC1      -0.946500
     26 H2          54.2480    11.5840    27.6780 ha         1 SC1       0.164000
     27 H3          54.3690    10.1310    29.6390 h1         1 SC1      -0.013300
     28 H4          56.4910    10.7550    30.5530 h1         1 SC1      -0.044300
     29 H5          57.6970     9.5410    28.0310 h1         1 SC1       0.112700
     30 H61         58.4830    11.8010    27.6020 hc         1 SC1       0.058200
     31 H62         57.9680    12.3660    29.1850 hc         1 SC1       0.058200
     32 HO2         57.6940     8.5900    30.4520 ho         1 SC1       0.499000
     33 H91         60.1860     6.9040    28.6380 hc         1 SC1      -0.003633
     34 H92         59.1410     7.2810    30.0180 hc         1 SC1      -0.003633
     35 H93         58.5840     7.5710    28.3570 hc         1 SC1      -0.003633
@<TRIPOS>BOND
     1     1     2 2   
     2     1     6 1   
     3     1     7 1   
     4     2     3 1   
     5     2    26 1   
     6     3     4 1   
     7     3     8 1   
     8     3    27 1   
     9     4     5 1   
    10     4     9 1   
    11     4    28 1   
    12     5     6 1   
    13     5    10 1   
    14     5    29 1   
    15     6    30 1   
    16     6    31 1   
    17     7    11 1   
    18     7    12 1   
    19     8    13 1   
    20     9    32 1   
    21    10    17 1   
    22    13    14 1   
    23    13    15 1   
    24    13    16 1   
    25    17    18 1   
    26    17    19 1   
    27    17    22 1   
    28    18    33 1   
    29    18    34 1   
    30    18    35 1   
    31    19    20 1   
    32    19    21 1   
    33    22    23 1   
    34    22    24 1   
    35    22    25 1   
@<TRIPOS>SUBSTRUCTURE
     1 SC1         1 TEMP              0 ****  ****    0 ROOT
