@<TRIPOS>MOLECULE
SC2
   18    17     1     0     0
SMALL
bcc


@<TRIPOS>ATOM
      1 C            0.0950    -1.8270    -0.1570 c          1 SC2       0.927600
      2 CB          -1.7790    -0.1310    -0.3420 c3         1 SC2       0.071700
      3 CT           1.6340     1.0460     0.2490 c          1 SC2       0.676100
      4 CA          -0.3620    -0.3710     0.1570 c3         1 SC2      -0.045300
      5 N            0.5250     0.6280    -0.3830 ns         1 SC2      -0.519900
      6 OXT         -0.7050    -2.7130     0.2010 o          1 SC2      -0.821300
      7 O            1.1970    -1.9720    -0.7060 o          1 SC2      -0.821300
      8 OT           1.8950     0.7560     1.4110 o          1 SC2      -0.633100
      9 CM           2.5460     1.9300    -0.5650 c3         1 SC2      -0.176100
     10 SG          -2.2850     1.5750     0.0710 sh         1 SC2      -0.468900
     11 H2           0.4650     0.8000    -1.3740 hn         1 SC2       0.293500
     12 HA          -0.3610    -0.2560     1.2440 h1         1 SC2       0.082700
     13 HBC1        -1.8440    -0.2790    -1.4220 h1         1 SC2       0.063200
     14 HBC2        -2.4540    -0.8330     0.1390 h1         1 SC2       0.063200
     15 HMC1         2.1280     2.2160    -1.5290 hc         1 SC2       0.042367
     16 HMC2         2.7800     2.8350    -0.0050 hc         1 SC2       0.042367
     17 HMC3         3.4860     1.4070    -0.7440 hc         1 SC2       0.042367
     18 HSG         -3.6030     1.4050    -0.0900 hs         1 SC2       0.180800
@<TRIPOS>BOND
     1     1     4 1   
     2     1     6 1   
     3     1     7 1   
     4     2     4 1   
     5     2    10 1   
     6     2    13 1   
     7     2    14 1   
     8     3     5 1   
     9     3     8 2   
    10     3     9 1   
    11     4     5 1   
    12     4    12 1   
    13     5    11 1   
    14     9    15 1   
    15     9    16 1   
    16     9    17 1   
    17    10    18 1   
@<TRIPOS>SUBSTRUCTURE
     1 SC2         1 TEMP              0 ****  ****    0 ROOT
