@<TRIPOS>MOLECULE
SC2
   18    17     1     0     0
SMALL
No Charge or Current Charge


@<TRIPOS>ATOM
      1 C           -0.0410    -2.0490    -0.2180 c          1 SC2       0.927600
      2 CB          -1.6920    -0.1050    -0.3170 c3         1 SC2       0.071700
      3 CT           1.4630     1.2940     0.3550 c          1 SC2       0.676100
      4 CA          -0.2880    -0.5530     0.1530 c3         1 SC2      -0.045300
      5 N            0.7900     0.3380    -0.3730 ns         1 SC2      -0.519900
      6 OXT          0.1060    -2.8600     0.6890 o          1 SC2      -0.821300
      7 O            0.0660    -2.3540    -1.4020 o          1 SC2      -0.821300
      8 OT           1.2800     1.4680     1.5520 o          1 SC2      -0.633100
      9 CM           2.4710     2.1100    -0.4480 c3         1 SC2      -0.176100
     10 SG          -2.1190     1.6580     0.0850 sh         1 SC2      -0.468900
     11 H2           1.0380     0.2630    -1.3530 hn         1 SC2       0.293500
     12 HA          -0.2750    -0.5070     1.2480 h1         1 SC2       0.082700
     13 HBC1        -1.7640    -0.2290    -1.4050 h1         1 SC2       0.063200
     14 HBC2        -2.4480    -0.7560     0.1430 h1         1 SC2       0.063200
     15 HMC1         1.9580     2.5750    -1.2980 hc         1 SC2       0.042367
     16 HMC2         2.9970     2.8540     0.1620 hc         1 SC2       0.042367
     17 HMC3         3.1700     1.4270    -0.9450 hc         1 SC2       0.042367
     18 HSG         -3.3540     1.6420    -0.4730 hs         1 SC2       0.180800
@<TRIPOS>BOND
     1     1     4 1   
     2     1     6 1   
     3     1     7 1   
     4     2     4 1   
     5     2    10 1   
     6     2    13 1   
     7     2    14 1   
     8     3     5 1   
     9     3     8 2   
    10     3     9 1   
    11     4     5 1   
    12     4    12 1   
    13     5    11 1   
    14     9    15 1   
    15     9    16 1   
    16     9    17 1   
    17    10    18 1   
@<TRIPOS>SUBSTRUCTURE
     1 SC2         1 TEMP              0 ****  ****    0 ROOT
