@<TRIPOS>MOLECULE
SC3
   49    52     1     0     0
SMALL
No Charge or Current Charge


@<TRIPOS>ATOM
      1 N1           3.7610    -0.1670     0.3370 n          1 SC3      -0.370400
      2 C2           3.8970     0.9760    -0.4740 c          1 SC3       0.626000
      3 N3           2.7380     1.6960    -0.8090 n          1 SC3      -0.360300
      4 C4           1.5180     1.2920    -0.3230 cc         1 SC3       0.454900
      5 C5           1.3900     0.2020     0.4730 cd         1 SC3      -0.323600
      6 C6           2.5410    -0.6140     0.8650 c          1 SC3       0.627600
      7 N7           0.0290     0.1060     0.7490 na         1 SC3      -0.107500
      8 C8          -0.5400     1.1900     0.0980 cd         1 SC3       0.627400
      9 N9           0.3320     1.9130    -0.5660 nc         1 SC3      -0.731000
     10 N10         -1.8960     1.4920     0.1150 nh         1 SC3      -0.741300
     11 C11         -2.5330     2.0730    -1.1080 c6         1 SC3       0.167300
     12 C12         -4.0330     1.6770    -1.1990 c6         1 SC3       0.093100
     13 N13         -4.7340     2.0210     0.1590 ny         1 SC3      -0.819000
     14 C14         -4.0150     1.5490     1.4690 c6         1 SC3       0.093100
     15 C15         -2.5190     1.9620     1.3910 c6         1 SC3       0.167300
     16 C16         -0.6770    -0.9910     1.4370 c3         1 SC3       0.127900
     17 C17         -1.1630    -2.0700     0.4750 ca         1 SC3      -0.132300
     18 C18         -2.4020    -1.9300    -0.1790 ca         1 SC3      -0.086000
     19 C19         -2.8480    -2.9180    -1.0740 ca         1 SC3      -0.109500
     20 C20         -2.0580    -4.0540    -1.3190 ca         1 SC3      -0.080000
     21 C21         -0.8220    -4.2000    -0.6680 ca         1 SC3      -0.109500
     22 C22         -0.3750    -3.2120     0.2270 ca         1 SC3      -0.086000
     23 O23          2.4480    -1.5900     1.5940 o          1 SC3      -0.528000
     24 C24          4.9940    -0.9290     0.6790 c3         1 SC3       0.082300
     25 O25          4.9950     1.3370    -0.8760 o          1 SC3      -0.529000
     26 C26          2.8740     2.8980    -1.6720 c3         1 SC3       0.098300
     27 H111        -2.4490     3.1700    -1.0950 h1         1 SC3       0.092200
     28 H112        -2.0220     1.7250    -2.0180 h1         1 SC3       0.092200
     29 H121        -4.5550     2.2020    -2.0070 hx         1 SC3       0.110200
     30 H122        -4.1370     0.5970    -1.3500 hx         1 SC3       0.110200
     31 H131        -4.8620     3.0550     0.2090 hn         1 SC3       0.504500
     32 H132        -5.7120     1.6570     0.1480 hn         1 SC3       0.504500
     33 H141        -4.5280     1.9940     2.3300 hx         1 SC3       0.110200
     34 H142        -4.1150     0.4590     1.5170 hx         1 SC3       0.110200
     35 H151        -1.9890     1.5650     2.2690 h1         1 SC3       0.092200
     36 H152        -2.4510     3.0580     1.4590 h1         1 SC3       0.092200
     37 H161        -0.0120    -1.4330     2.1880 h1         1 SC3       0.077700
     38 H162        -1.5370    -0.5830     1.9800 h1         1 SC3       0.077700
     39 H18         -3.0220    -1.0560     0.0030 ha         1 SC3       0.110000
     40 H19         -3.8060    -2.8030    -1.5770 ha         1 SC3       0.122000
     41 H20         -2.4030    -4.8190    -2.0120 ha         1 SC3       0.127000
     42 H21         -0.2090    -5.0790    -0.8570 ha         1 SC3       0.122000
     43 H22          0.5830    -3.3360     0.7250 ha         1 SC3       0.110000
     44 H241         5.6870    -0.9470    -0.1720 h1         1 SC3       0.065033
     45 H242         5.4940    -0.4570     1.5340 h1         1 SC3       0.065033
     46 H243         4.7630    -1.9710     0.9350 h1         1 SC3       0.065033
     47 H261         3.5390     2.6830    -2.5180 h1         1 SC3       0.062367
     48 H262         1.9040     3.2110    -2.0770 h1         1 SC3       0.062367
     49 H263         3.2960     3.7250    -1.0860 h1         1 SC3       0.062367
@<TRIPOS>BOND
     1     1     2 1   
     2     1     6 1   
     3     1    24 1   
     4     2     3 1   
     5     2    25 2   
     6     3     4 1   
     7     3    26 1   
     8     4     5 2   
     9     4     9 1   
    10     5     6 1   
    11     5     7 1   
    12     6    23 2   
    13     7     8 1   
    14     7    16 1   
    15     8     9 2   
    16     8    10 1   
    17    10    11 1   
    18    10    15 1   
    19    11    12 1   
    20    11    27 1   
    21    11    28 1   
    22    12    13 1   
    23    12    29 1   
    24    12    30 1   
    25    13    14 1   
    26    13    31 1   
    27    13    32 1   
    28    14    15 1   
    29    14    33 1   
    30    14    34 1   
    31    15    35 1   
    32    15    36 1   
    33    16    17 1   
    34    16    37 1   
    35    16    38 1   
    36    17    18 ar  
    37    17    22 ar  
    38    18    19 ar  
    39    18    39 1   
    40    19    20 ar  
    41    19    40 1   
    42    20    21 ar  
    43    20    41 1   
    44    21    22 ar  
    45    21    42 1   
    46    22    43 1   
    47    24    44 1   
    48    24    45 1   
    49    24    46 1   
    50    26    47 1   
    51    26    48 1   
    52    26    49 1   
@<TRIPOS>SUBSTRUCTURE
     1 SC3         1 TEMP              0 ****  ****    0 ROOT
