@<TRIPOS>MOLECULE
SC3
   49    52     1     0     0
SMALL
abcg2


@<TRIPOS>ATOM
      1 N1           3.6100    -0.1690     0.3740 n          1 SC3      -0.370400
      2 C2           3.7560     0.8630    -0.5500 c          1 SC3       0.626000
      3 N3           2.6120     1.5260    -0.9230 n          1 SC3      -0.360300
      4 C4           1.4150     1.1560    -0.3920 cc         1 SC3       0.454900
      5 C5           1.2940     0.1340     0.5080 cd         1 SC3      -0.323600
      6 C6           2.4220    -0.5810     0.9880 c          1 SC3       0.627600
      7 N7          -0.0520     0.0920     0.8290 na         1 SC3      -0.107500
      8 C8          -0.6260     1.0810     0.1120 cd         1 SC3       0.627400
      9 N9           0.2350     1.7510    -0.6360 nc         1 SC3      -0.731000
     10 N10         -1.9790     1.3270     0.1640 nh         1 SC3      -0.741300
     11 C11         -2.5360     1.9920    -1.0040 c6         1 SC3       0.167300
     12 C12         -4.0410     1.8410    -0.9970 c6         1 SC3       0.093100
     13 N13         -4.6010     2.3810     0.2720 ny         1 SC3      -0.819000
     14 C14         -3.9820     1.7600     1.4730 c6         1 SC3       0.093100
     15 C15         -2.4800     1.9120     1.4060 c6         1 SC3       0.167300
     16 C16         -0.7410    -1.0310     1.4580 c3         1 SC3       0.127900
     17 C17         -1.0920    -2.0920     0.4480 ca         1 SC3      -0.132300
     18 C18         -2.3330    -2.0790    -0.1830 ca         1 SC3      -0.086000
     19 C19         -2.6490    -3.0310    -1.1410 ca         1 SC3      -0.109500
     20 C20         -1.7230    -4.0100    -1.4790 ca         1 SC3      -0.080000
     21 C21         -0.4850    -4.0340    -0.8510 ca         1 SC3      -0.109500
     22 C22         -0.1720    -3.0810     0.1090 ca         1 SC3      -0.086000
     23 O23          2.4290    -1.4620     1.8330 o          1 SC3      -0.528000
     24 C24          4.8120    -0.8830     0.7930 c3         1 SC3       0.082300
     25 O25          4.8450     1.1650    -1.0010 o          1 SC3      -0.529000
     26 C26          2.6540     2.6230    -1.8770 c3         1 SC3       0.098300
     27 H111        -2.2650     3.0540    -1.0420 h1         1 SC3       0.092200
     28 H112        -2.1580     1.5230    -1.9100 h1         1 SC3       0.092200
     29 H121        -4.4920     2.3890    -1.8190 hx         1 SC3       0.110200
     30 H122        -4.3390     0.7960    -1.0590 hx         1 SC3       0.110200
     31 H131        -4.4690     3.3940     0.3020 hn         1 SC3       0.504500
     32 H132        -5.6110     2.2410     0.2930 hn         1 SC3       0.504500
     33 H141        -4.3880     2.2550     2.3510 hx         1 SC3       0.110200
     34 H142        -4.2790     0.7130     1.4820 hx         1 SC3       0.110200
     35 H151        -2.0490     1.4120     2.2720 h1         1 SC3       0.092200
     36 H152        -2.2040     2.9720     1.4810 h1         1 SC3       0.092200
     37 H161        -0.0880    -1.4230     2.2350 h1         1 SC3       0.077700
     38 H162        -1.6360    -0.6640     1.9540 h1         1 SC3       0.077700
     39 H18         -3.0580    -1.3200     0.0800 ha         1 SC3       0.110000
     40 H19         -3.6190    -3.0110    -1.6210 ha         1 SC3       0.122000
     41 H20         -1.9680    -4.7560    -2.2250 ha         1 SC3       0.127000
     42 H21          0.2390    -4.7970    -1.1060 ha         1 SC3       0.122000
     43 H22          0.7930    -3.1110     0.6000 ha         1 SC3       0.110000
     44 H241         5.6550    -0.5450     0.2060 h1         1 SC3       0.065033
     45 H242         5.0180    -0.6990     1.8460 h1         1 SC3       0.065033
     46 H243         4.6840    -1.9530     0.6410 h1         1 SC3       0.065033
     47 H261         3.6740     2.7740    -2.2080 h1         1 SC3       0.062367
     48 H262         2.0320     2.3900    -2.7400 h1         1 SC3       0.062367
     49 H263         2.2900     3.5390    -1.4150 h1         1 SC3       0.062367
@<TRIPOS>BOND
     1     1     2 1   
     2     1     6 1   
     3     1    24 1   
     4     2     3 1   
     5     2    25 2   
     6     3     4 1   
     7     3    26 1   
     8     4     5 2   
     9     4     9 1   
    10     5     6 1   
    11     5     7 1   
    12     6    23 2   
    13     7     8 1   
    14     7    16 1   
    15     8     9 2   
    16     8    10 1   
    17    10    11 1   
    18    10    15 1   
    19    11    12 1   
    20    11    27 1   
    21    11    28 1   
    22    12    13 1   
    23    12    29 1   
    24    12    30 1   
    25    13    14 1   
    26    13    31 1   
    27    13    32 1   
    28    14    15 1   
    29    14    33 1   
    30    14    34 1   
    31    15    35 1   
    32    15    36 1   
    33    16    17 1   
    34    16    37 1   
    35    16    38 1   
    36    17    18 ar  
    37    17    22 ar  
    38    18    19 ar  
    39    18    39 1   
    40    19    20 ar  
    41    19    40 1   
    42    20    21 ar  
    43    20    41 1   
    44    21    22 ar  
    45    21    42 1   
    46    22    43 1   
    47    24    44 1   
    48    24    45 1   
    49    24    46 1   
    50    26    47 1   
    51    26    48 1   
    52    26    49 1   
@<TRIPOS>SUBSTRUCTURE
     1 SC3         1 TEMP              0 ****  ****    0 ROOT
