@<TRIPOS>MOLECULE
SC4
   44    46     1     0     0
SMALL
No Charge or Current Charge


@<TRIPOS>ATOM
      1 C1           0.0140     1.8700     6.6240 ca         1 SC4      -0.107000
      2 C2           0.0160     1.7320     5.2240 ca         1 SC4      -0.157000
      3 C3          -0.0010     0.4440     4.6410 ca         1 SC4       0.113100
      4 C4          -0.0190    -0.6920     5.4800 ca         1 SC4       0.116000
      5 Cl1         -0.0400    -2.3170     4.7930 cl         1 SC4      -0.185000
      6 C5          -0.0210    -0.5490     6.8790 ca         1 SC4      -0.158000
      7 C6          -0.0050     0.7380     7.4560 ca         1 SC4       0.113100
      8 O1           0.0000     0.2580     3.2700 os         1 SC4      -0.326100
      9 C7           0.0180     1.3560     2.3430 c3         1 SC4       0.209900
     10 C10          1.2230    -0.0120    -1.0340 ca         1 SC4      -0.087000
     11 C11          0.0050    -0.2620    -1.6950 ca         1 SC4      -0.080300
     12 C12         -1.2080     0.0200    -1.0390 ca         1 SC4      -0.087000
     13 C13         -1.2040     0.5420     0.2660 ca         1 SC4      -0.088000
     14 C8           0.0140     0.7910     0.9290 ca         1 SC4      -0.084300
     15 C9           1.2270     0.5100     0.2710 ca         1 SC4      -0.088000
     16 O3          -0.0060     0.9410     8.8210 os         1 SC4      -0.340100
     17 C21         -0.0240    -0.1490     9.7610 c3         1 SC4       0.147900
     18 O2           0.0060     0.2690    -4.0350 os         1 SC4      -0.340100
     19 C16         -1.2170    -0.0960    -6.0860 ca         1 SC4       0.100500
     20 C17         -1.2170    -0.3710    -7.4650 ca         1 SC4      -0.093000
     21 C18         -0.0020    -0.5510    -8.1490 ca         1 SC4      -0.101000
     22 C19          1.2170    -0.4530    -7.4550 ca         1 SC4      -0.093000
     23 C20          1.2230    -0.1780    -6.0760 ca         1 SC4       0.100500
     24 C15          0.0050    -0.0020    -5.3850 ca         1 SC4       0.117100
     25 H1           0.0260     2.8620     7.0690 ha         1 SC4       0.130000
     26 H2           0.0300     2.6300     4.6140 ha         1 SC4       0.121000
     27 H5          -0.0350    -1.4440     7.4920 ha         1 SC4       0.133000
     28 H71         -0.8630     1.9960     2.4840 h1         1 SC4       0.041700
     29 H72          0.9160     1.9710     2.4880 h1         1 SC4       0.041700
     30 H10          2.1670    -0.2220    -1.5320 ha         1 SC4       0.118500
     31 H12         -2.1560    -0.1650    -1.5410 ha         1 SC4       0.118500
     32 H13         -2.1480     0.7520     0.7630 ha         1 SC4       0.117000
     33 H9           2.1750     0.6950     0.7720 ha         1 SC4       0.117000
     34 H211        -0.0210     0.2350    10.7880 h1         1 SC4       0.041700
     35 H212        -0.9240    -0.7630     9.6290 h1         1 SC4       0.041700
     36 H213         0.8600    -0.7880     9.6350 h1         1 SC4       0.041700
     37 H141         0.8830    -1.4620    -3.2560 h1         1 SC4       0.045200
     38 H142        -0.8910    -1.4500    -3.2540 h1         1 SC4       0.045200
     39 H17         -2.1600    -0.4450    -8.0020 ha         1 SC4       0.134000
     40 H18         -0.0040    -0.7640    -9.2170 ha         1 SC4       0.125000
     41 H19          2.1570    -0.5900    -7.9840 ha         1 SC4       0.134000
     42 C14          0.0010    -0.8260    -3.1090 c3         1 SC4       0.208900
     43 Cl2         -2.7570     0.1260    -5.2540 cl         1 SC4      -0.180000
     44 Cl3          2.7690    -0.0560    -5.2320 cl         1 SC4      -0.180000
@<TRIPOS>BOND
     1     1     2 ar  
     2     1     7 ar  
     3     1    25 1   
     4     2     3 ar  
     5     2    26 1   
     6     3     4 ar  
     7     3     8 1   
     8     4     5 1   
     9     4     6 ar  
    10     6     7 ar  
    11     6    27 1   
    12     7    16 1   
    13     8     9 1   
    14     9    14 1   
    15     9    28 1   
    16     9    29 1   
    17    10    11 ar  
    18    10    15 ar  
    19    10    30 1   
    20    11    12 ar  
    21    11    42 1   
    22    12    13 ar  
    23    12    31 1   
    24    13    14 ar  
    25    13    32 1   
    26    14    15 ar  
    27    15    33 1   
    28    16    17 1   
    29    17    34 1   
    30    17    35 1   
    31    17    36 1   
    32    18    24 1   
    33    18    42 1   
    34    19    20 ar  
    35    19    24 ar  
    36    19    43 1   
    37    20    21 ar  
    38    20    39 1   
    39    21    22 ar  
    40    21    40 1   
    41    22    23 ar  
    42    22    41 1   
    43    23    24 ar  
    44    23    44 1   
    45    37    42 1   
    46    38    42 1   
@<TRIPOS>SUBSTRUCTURE
     1 SC4         1 TEMP              0 ****  ****    0 ROOT
