@<TRIPOS>MOLECULE
SC4
   44    46     1     0     0
SMALL
bcc


@<TRIPOS>ATOM
      1 C1           0.0270     1.8410     6.5130 ca         1 SC4      -0.125000
      2 C2          -0.0080     1.7090     5.1350 ca         1 SC4      -0.175000
      3 C3          -0.0070     0.4520     4.5320 ca         1 SC4       0.113100
      4 C4           0.0320    -0.6600     5.3690 ca         1 SC4       0.024400
      5 CL1          0.0400    -2.2370     4.6590 cl         1 SC4      -0.093400
      6 C5           0.0670    -0.5450     6.7500 ca         1 SC4      -0.176000
      7 C6           0.0640     0.7180     7.3350 ca         1 SC4       0.113100
      8 O1          -0.0430     0.2260     3.2060 os         1 SC4      -0.302900
      9 C7          -0.0690     1.3470     2.3320 c3         1 SC4       0.186700
     10 C10          1.0500     0.0290    -1.0350 ca         1 SC4      -0.105000
     11 C11         -0.1640    -0.2620    -1.6500 ca         1 SC4      -0.080300
     12 C12         -1.3460    -0.0030    -0.9650 ca         1 SC4      -0.105000
     13 C13         -1.3150     0.5250     0.3180 ca         1 SC4      -0.106000
     14 C8          -0.1020     0.8130     0.9330 ca         1 SC4      -0.084300
     15 C9           1.0810     0.5570     0.2450 ca         1 SC4      -0.106000
     16 O3           0.0950     0.9370     8.6640 os         1 SC4      -0.316900
     17 C21          0.1240    -0.1790     9.5310 c3         1 SC4       0.124700
     18 O2           0.0010     0.3260    -3.9290 os         1 SC4      -0.316900
     19 C16         -1.0970    -0.0450    -6.0170 ca         1 SC4       0.008900
     20 C17         -1.0430    -0.3300    -7.3720 ca         1 SC4      -0.111000
     21 C18          0.1860    -0.5790    -7.9620 ca         1 SC4      -0.119000
     22 C19          1.3520    -0.5370    -7.2130 ca         1 SC4      -0.111000
     23 C20          1.2760    -0.2510    -5.8590 ca         1 SC4       0.008900
     24 C15          0.0560     0.0100    -5.2370 ca         1 SC4       0.117100
     25 H1           0.0260     2.8290     6.9540 ha         1 SC4       0.148000
     26 H2          -0.0370     2.6080     4.5340 ha         1 SC4       0.139000
     27 H5           0.0970    -1.4470     7.3460 ha         1 SC4       0.151000
     28 H71         -0.9510     1.9660     2.5290 h1         1 SC4       0.041700
     29 H72          0.8170     1.9730     2.4860 h1         1 SC4       0.041700
     30 H10          1.9790    -0.1640    -1.5580 ha         1 SC4       0.136500
     31 H12         -2.2990    -0.2170    -1.4340 ha         1 SC4       0.136500
     32 H13         -2.2450     0.7210     0.8380 ha         1 SC4       0.135000
     33 H9           2.0330     0.7760     0.7120 ha         1 SC4       0.135000
     34 H211         0.1400     0.2150    10.5430 h1         1 SC4       0.041700
     35 H212        -0.7600    -0.8120     9.4140 h1         1 SC4       0.041700
     36 H213         1.0160    -0.7930     9.3800 h1         1 SC4       0.041700
     37 H141         0.6020    -1.5290    -3.2020 h1         1 SC4       0.045200
     38 H142        -1.1490    -1.2760    -3.2630 h1         1 SC4       0.045200
     39 H17         -1.9510    -0.3610    -7.9570 ha         1 SC4       0.152000
     40 H18          0.2370    -0.7990    -9.0200 ha         1 SC4       0.143000
     41 H19          2.3110    -0.7300    -7.6730 ha         1 SC4       0.152000
     42 C14         -0.1920    -0.7930    -3.0480 c3         1 SC4       0.185700
     43 CL2         -2.6150     0.2830    -5.2620 cl         1 SC4      -0.088400
     44 CL3          2.7140    -0.1810    -4.9080 cl         1 SC4      -0.088400
@<TRIPOS>BOND
     1     1     2 ar  
     2     1     7 ar  
     3     1    25 1   
     4     2     3 ar  
     5     2    26 1   
     6     3     4 ar  
     7     3     8 1   
     8     4     5 1   
     9     4     6 ar  
    10     6     7 ar  
    11     6    27 1   
    12     7    16 1   
    13     8     9 1   
    14     9    14 1   
    15     9    28 1   
    16     9    29 1   
    17    10    11 ar  
    18    10    15 ar  
    19    10    30 1   
    20    11    12 ar  
    21    11    42 1   
    22    12    13 ar  
    23    12    31 1   
    24    13    14 ar  
    25    13    32 1   
    26    14    15 ar  
    27    15    33 1   
    28    16    17 1   
    29    17    34 1   
    30    17    35 1   
    31    17    36 1   
    32    18    24 1   
    33    18    42 1   
    34    19    20 ar  
    35    19    24 ar  
    36    19    43 1   
    37    20    21 ar  
    38    20    39 1   
    39    21    22 ar  
    40    21    40 1   
    41    22    23 ar  
    42    22    41 1   
    43    23    24 ar  
    44    23    44 1   
    45    37    42 1   
    46    38    42 1   
@<TRIPOS>SUBSTRUCTURE
     1 SC4         1 TEMP              0 ****  ****    0 ROOT
