@<TRIPOS>MOLECULE
SC5
   50    51     1     0     0
SMALL
abcg2


@<TRIPOS>ATOM
      1 C1           4.5540    -2.6320     1.2450 ca         1 SC5      -0.108000
      2 C2           3.9150    -2.6890     0.0120 ca         1 SC5      -0.115500
      3 C3           3.3490    -1.5470    -0.5370 ca         1 SC5      -0.096500
      4 C4           3.4110    -0.3310     0.1380 ca         1 SC5      -0.092300
      5 C5           4.0460    -0.2840     1.3750 ca         1 SC5      -0.096500
      6 C6           4.6180    -1.4240     1.9260 ca         1 SC5      -0.115500
      7 C7           3.8720     1.5340    -1.4460 c3         1 SC5      -0.094100
      8 C8           2.8570     0.9360    -0.4760 c3         1 SC5       0.241800
      9 C9          -0.5770     2.5300    -0.0620 c3         1 SC5       0.131800
     10 C10         -0.4750     3.7190     0.8850 c3         1 SC5       0.383300
     11 O1          -1.3290     3.4620     1.9680 oh         1 SC5      -0.687000
     12 O2           0.8460     3.9070     1.2880 oh         1 SC5      -0.687000
     13 N1          -0.5450    -0.1420    -1.2740 nu         1 SC5      -0.964200
     14 C11          0.4920     0.3270    -0.3740 c3         1 SC5       0.688900
     15 N2           0.0850     1.3860     0.5370 n7         1 SC5      -0.955400
     16 N3           1.6230     0.6690    -1.1920 n7         1 SC5      -0.882400
     17 C12         -5.6370    -2.0170     0.5370 c3         1 SC5       0.205100
     18 N4          -6.2340    -2.9310    -0.4260 n8         1 SC5      -0.998200
     19 C13         -3.1710    -1.6020     0.8800 ca         1 SC5      -0.053500
     20 C14         -1.9280    -1.1390     0.4670 ca         1 SC5      -0.186000
     21 C15         -1.7680    -0.5740    -0.8020 ca         1 SC5       0.306000
     22 C16         -2.9010    -0.4990    -1.6280 ca         1 SC5      -0.186000
     23 C17         -4.1270    -0.9720    -1.2020 ca         1 SC5      -0.053500
     24 C18         -4.2940    -1.5250     0.0680 ca         1 SC5      -0.134300
     25 H1           4.9930    -3.5240     1.6730 ha         1 SC5       0.111000
     26 H2           3.8530    -3.6290    -0.5230 ha         1 SC5       0.112000
     27 H3           2.8430    -1.5980    -1.4930 ha         1 SC5       0.120500
     28 H5           4.0950     0.6560     1.9150 ha         1 SC5       0.120500
     29 H6           5.1090    -1.3680     2.8890 ha         1 SC5       0.112000
     30 H71          4.8170     1.7280    -0.9410 hc         1 SC5       0.043033
     31 H72          4.0610     0.8560    -2.2800 hc         1 SC5       0.043033
     32 H73          3.5110     2.4820    -1.8520 hc         1 SC5       0.043033
     33 H8           2.7080     1.6620     0.3350 h1         1 SC5       0.040700
     34 H91         -0.0590     2.8020    -0.9840 h1         1 SC5       0.047200
     35 H92         -1.6260     2.3530    -0.3280 h1         1 SC5       0.047200
     36 H10         -0.7760     4.6360     0.3650 h2         1 SC5       0.056700
     37 HO1         -1.3470     4.2380     2.5380 ho         1 SC5       0.463000
     38 HO2          1.2070     3.0170     1.4220 ho         1 SC5       0.463000
     39 HN1         -0.5950     0.3570    -2.1510 hn         1 SC5       0.461000
     40 H11          0.7940    -0.5060     0.2660 h3         1 SC5       0.096700
     41 HN2         -0.4790     1.0040     1.2850 hn         1 SC5       0.451000
     42 HN3          1.4090     1.4470    -1.8060 hn         1 SC5       0.418000
     43 H121        -5.5220    -2.4440     1.5420 h1         1 SC5       0.031200
     44 H122        -6.3180    -1.1670     0.6480 h1         1 SC5       0.031200
     45 HN41        -5.6800    -3.7770    -0.4740 hn         1 SC5       0.394500
     46 HN42        -7.1480    -3.2140    -0.0970 hn         1 SC5       0.394500
     47 H13         -3.2570    -2.0400     1.8690 ha         1 SC5       0.115000
     48 H14         -1.0860    -1.2530     1.1370 ha         1 SC5       0.110500
     49 H16         -2.8090    -0.0620    -2.6160 ha         1 SC5       0.110500
     50 H17         -4.9770    -0.9040    -1.8700 ha         1 SC5       0.115000
@<TRIPOS>BOND
     1     1     2 ar  
     2     1     6 ar  
     3     1    25 1   
     4     2     3 ar  
     5     2    26 1   
     6     3     4 ar  
     7     3    27 1   
     8     4     5 ar  
     9     4     8 1   
    10     5     6 ar  
    11     5    28 1   
    12     6    29 1   
    13     7     8 1   
    14     7    30 1   
    15     7    31 1   
    16     7    32 1   
    17     8    16 1   
    18     8    33 1   
    19     9    10 1   
    20     9    15 1   
    21     9    34 1   
    22     9    35 1   
    23    10    11 1   
    24    10    12 1   
    25    10    36 1   
    26    11    37 1   
    27    12    38 1   
    28    13    14 1   
    29    13    21 1   
    30    13    39 1   
    31    14    15 1   
    32    14    16 1   
    33    14    40 1   
    34    15    41 1   
    35    16    42 1   
    36    17    18 1   
    37    17    24 1   
    38    17    43 1   
    39    17    44 1   
    40    18    45 1   
    41    18    46 1   
    42    19    20 ar  
    43    19    24 ar  
    44    19    47 1   
    45    20    21 ar  
    46    20    48 1   
    47    21    22 ar  
    48    22    23 ar  
    49    22    49 1   
    50    23    24 ar  
    51    23    50 1   
@<TRIPOS>SUBSTRUCTURE
     1 SC5         1 TEMP              0 ****  ****    0 ROOT
