@<TRIPOS>MOLECULE
SC5
   50    51     1     0     0
SMALL
No Charge or Current Charge


@<TRIPOS>ATOM
      1 C1           1.6510    -3.0880    -2.4430 ca         1 SC5      -0.108000
      2 C2           1.7290    -1.8250    -3.0530 ca         1 SC5      -0.115500
      3 C3           2.0270    -0.6880    -2.2820 ca         1 SC5      -0.096500
      4 C4           2.2480    -0.8040    -0.8930 ca         1 SC5      -0.092300
      5 C5           2.1630    -2.0750    -0.2880 ca         1 SC5      -0.096500
      6 C6           1.8670    -3.2120    -1.0600 ca         1 SC5      -0.115500
      7 C7           3.9810     0.9770    -0.4090 c3         1 SC5      -0.094100
      8 C8           2.5880     0.4280    -0.0490 c3         1 SC5       0.241800
      9 C9           0.3790     3.8900     0.7760 c3         1 SC5       0.131800
     10 C10         -0.5820     5.0860     0.4850 c3         1 SC5       0.383300
     11 O1          -0.3970     5.5790    -0.8300 oh         1 SC5      -0.687000
     12 O2          -1.8750     4.5420     0.4960 oh         1 SC5      -0.687000
     13 N1          -0.3270     0.6030    -0.2740 nu         1 SC5      -0.964200
     14 C11          0.4250     1.4120     0.5360 c3         1 SC5       0.688900
     15 N2          -0.2040     2.6090     0.2450 n7         1 SC5      -0.955400
     16 N3           1.6000     1.5140    -0.2190 n7         1 SC5      -0.882400
     17 C12         -4.0250    -3.3940     1.5260 c3         1 SC5       0.205100
     18 N4          -3.3780    -4.3530     2.4360 n8         1 SC5      -0.998200
     19 C13         -2.9620    -1.0920     1.7280 ca         1 SC5      -0.053500
     20 C14         -2.0590    -0.1080     1.2870 ca         1 SC5      -0.186000
     21 C15         -1.2290    -0.3510     0.1780 ca         1 SC5       0.306000
     22 C16         -1.3180    -1.5780    -0.4940 ca         1 SC5      -0.186000
     23 C17         -2.2170    -2.5670    -0.0570 ca         1 SC5      -0.053500
     24 C18         -3.0430    -2.3300     1.0590 ca         1 SC5      -0.134300
     25 H1           1.4210    -3.9680    -3.0390 ha         1 SC5       0.111000
     26 H2           1.5610    -1.7270    -4.1230 ha         1 SC5       0.112000
     27 H3           2.0870     0.2860    -2.7630 ha         1 SC5       0.120500
     28 H5           2.3290    -2.1830     0.7810 ha         1 SC5       0.120500
     29 H6           1.8030    -4.1890    -0.5860 ha         1 SC5       0.112000
     30 H71          4.7400     0.1960    -0.2860 hc         1 SC5       0.043033
     31 H72          4.0120     1.3250    -1.4490 hc         1 SC5       0.043033
     32 H73          4.2490     1.8150     0.2440 hc         1 SC5       0.043033
     33 H8           2.6270     0.1300     1.0090 h1         1 SC5       0.040700
     34 H91          0.5090     3.8210     1.8650 h1         1 SC5       0.047200
     35 H92          1.3650     4.1070     0.3430 h1         1 SC5       0.047200
     36 H10         -0.4750     5.8930     1.2230 h2         1 SC5       0.056700
     37 HO1         -0.9070     6.4150    -0.8650 ho         1 SC5       0.463000
     38 HO2         -1.6180     3.5860     0.3730 ho         1 SC5       0.463000
     39 HN1          0.2980     0.2610    -0.9900 hn         1 SC5       0.461000
     40 H11          0.4850     1.0880     1.5910 h3         1 SC5       0.096700
     41 HN2         -0.1480     2.5770    -0.7710 hn         1 SC5       0.451000
     42 HN3          2.0380     2.3350     0.1890 hn         1 SC5       0.418000
     43 H121        -4.8670    -2.9200     2.0510 h1         1 SC5       0.031200
     44 H122        -4.4250    -3.9400     0.6600 h1         1 SC5       0.031200
     45 HN41        -3.0550    -3.8450     3.2670 hn         1 SC5       0.394500
     46 HN42        -4.0910    -4.9950     2.8020 hn         1 SC5       0.394500
     47 H13         -3.5990    -0.8920     2.5870 ha         1 SC5       0.115000
     48 H14         -2.0120     0.8440     1.8070 ha         1 SC5       0.110500
     49 H16         -0.6920    -1.7690    -1.3590 ha         1 SC5       0.110500
     50 H17         -2.2730    -3.5160    -0.5850 ha         1 SC5       0.115000
@<TRIPOS>BOND
     1     1     2 ar  
     2     1     6 ar  
     3     1    25 1   
     4     2     3 ar  
     5     2    26 1   
     6     3     4 ar  
     7     3    27 1   
     8     4     5 ar  
     9     4     8 1   
    10     5     6 ar  
    11     5    28 1   
    12     6    29 1   
    13     7     8 1   
    14     7    30 1   
    15     7    31 1   
    16     7    32 1   
    17     8    16 1   
    18     8    33 1   
    19     9    10 1   
    20     9    15 1   
    21     9    34 1   
    22     9    35 1   
    23    10    11 1   
    24    10    12 1   
    25    10    36 1   
    26    11    37 1   
    27    12    38 1   
    28    13    14 1   
    29    13    21 1   
    30    13    39 1   
    31    14    15 1   
    32    14    16 1   
    33    14    40 1   
    34    15    41 1   
    35    16    42 1   
    36    17    18 1   
    37    17    24 1   
    38    17    43 1   
    39    17    44 1   
    40    18    45 1   
    41    18    46 1   
    42    19    20 ar  
    43    19    24 ar  
    44    19    47 1   
    45    20    21 ar  
    46    20    48 1   
    47    21    22 ar  
    48    22    23 ar  
    49    22    49 1   
    50    23    24 ar  
    51    23    50 1   
@<TRIPOS>SUBSTRUCTURE
     1 SC5         1 TEMP              0 ****  ****    0 ROOT
