@<TRIPOS>MOLECULE
SC6
   83    87     1     0     0
SMALL
No Charge or Current Charge


@<TRIPOS>ATOM
      1 C1          -4.4550     1.5330    -1.1010 ca         1 SC6      -0.067000
      2 C2          -3.3710     1.6570    -1.9860 ca         1 SC6      -0.092300
      3 C3          -2.0980     1.1970    -1.6040 ca         1 SC6      -0.077000
      4 C4          -1.8950     0.6140    -0.3300 ca         1 SC6      -0.158600
      5 C5          -2.9980     0.4950     0.5440 ca         1 SC6      -0.025000
      6 C6          -4.2850     0.9320     0.1650 ca         1 SC6      -0.143600
      7 C7          -5.4320     0.7880     1.1430 c          1 SC6       0.620700
      8 N1          -6.7450     0.6960     0.6340 n          1 SC6      -0.397800
      9 O1          -5.2290     0.8300     2.3520 o          1 SC6      -0.603100
     10 C8          -7.0260    -0.1170    -0.5750 c5         1 SC6       0.108000
     11 C9          -8.2870    -0.9070    -0.1510 c5         1 SC6      -0.096400
     12 C10         -9.0510     0.1790     0.6360 c5         1 SC6      -0.091400
     13 C11         -7.9200     0.7380     1.5480 c5         1 SC6       0.113700
     14 C12         -8.2390     2.1510     2.1150 c3         1 SC6       0.145600
     15 C30         -3.5700     2.3040    -3.3490 c3         1 SC6      -0.046800
     16 C14         -0.5410     0.1040     0.1180 c          1 SC6       0.613700
     17 N2           0.4970     0.2470    -0.7780 ns         1 SC6      -0.493900
     18 O2          -0.3720    -0.4130     1.2140 o          1 SC6      -0.584100
     19 C15          1.8600    -0.2810    -0.5960 c3         1 SC6       0.084700
     20 C16          2.9150     0.8020    -0.9860 c3         1 SC6       0.168300
     21 C17          2.0150    -1.6360    -1.3440 c3         1 SC6      -0.059100
     22 O3           2.7130     1.2190    -2.3550 oh         1 SC6      -0.659000
     23 C19          0.9440    -2.6500    -0.9600 ca         1 SC6      -0.025300
     24 C21          1.0800    -3.4160     0.2140 ca         1 SC6      -0.163500
     25 C22          0.0790    -4.3280     0.5820 ca         1 SC6       0.203500
     26 C23         -1.0650    -4.4880    -0.2120 ca         1 SC6      -0.193000
     27 C24         -1.2020    -3.7280    -1.3810 ca         1 SC6       0.203500
     28 C25         -0.2050    -2.8150    -1.7580 ca         1 SC6      -0.163500
     29 F2           0.2160    -5.0560     1.7110 f          1 SC6      -0.174500
     30 F1          -2.3030    -3.8730    -2.1490 f          1 SC6      -0.174500
     31 C26          6.6970     0.9000    -0.4310 c5         1 SC6       0.138300
     32 C18          6.1170     0.4100     0.9330 c5         1 SC6       0.120800
     33 N3           4.7030     0.0060     0.6590 n7         1 SC6      -0.852400
     34 C20          5.4280     1.5280    -1.0410 c5         1 SC6      -0.096400
     35 C27          4.4080     0.3950    -0.7520 c5         1 SC6       0.132500
     36 O4           7.6530     1.9780    -0.2210 os         1 SC6      -0.338100
     37 C31          8.7850     1.5710     0.4720 ca         1 SC6       0.142100
     38 C32          9.3530     0.2750     0.3770 ca         1 SC6      -0.171000
     39 C33         10.5140    -0.0410     1.1060 ca         1 SC6      -0.073500
     40 C34         11.1210     0.9270     1.9220 ca         1 SC6      -0.146000
     41 C35         10.5750     2.2180     2.0050 ca         1 SC6      -0.073500
     42 C36          9.4160     2.5350     1.2760 ca         1 SC6      -0.171000
     43 O5          -8.3670     3.0940     1.0300 os         1 SC6      -0.451000
     44 H1          -5.4240     1.9290    -1.3940 ha         1 SC6       0.125000
     45 H3          -1.2780     1.3070    -2.3080 ha         1 SC6       0.118000
     46 H5          -2.8600     0.0460     1.5260 ha         1 SC6       0.146000
     47 H81         -7.2380     0.5300    -1.4370 h1         1 SC6       0.052700
     48 H82         -6.1970    -0.7880    -0.8390 h1         1 SC6       0.052700
     49 H91         -8.8510    -1.2900    -1.0100 hc         1 SC6       0.054700
     50 H92         -8.0300    -1.7620     0.4860 hc         1 SC6       0.054700
     51 H101        -9.4560     0.9430    -0.0390 hc         1 SC6       0.057200
     52 H102        -9.8900    -0.2260     1.2130 hc         1 SC6       0.057200
     53 H11         -7.7590     0.0600     2.3980 h1         1 SC6       0.068700
     54 H121        -9.1680     2.1010     2.6980 h1         1 SC6       0.037700
     55 H122        -7.4290     2.4540     2.7920 h1         1 SC6       0.037700
     56 H301        -3.3540     3.3780    -3.3060 hc         1 SC6       0.044367
     57 H302        -2.9090     1.8590    -4.1030 hc         1 SC6       0.044367
     58 H303        -4.6000     2.1830    -3.7040 hc         1 SC6       0.044367
     59 HN2          0.2910     0.7190    -1.6480 hn         1 SC6       0.316500
     60 H15          2.0050    -0.4850     0.4750 h1         1 SC6       0.113700
     61 H16          2.7290     1.6600    -0.3230 h1         1 SC6       0.097700
     62 H171         1.9850    -1.4610    -2.4270 hc         1 SC6       0.049200
     63 H172         3.0040    -2.0590    -1.1330 hc         1 SC6       0.049200
     64 HO3          2.9800     0.4710    -2.9310 ho         1 SC6       0.437000
     65 H21          1.9560    -3.3000     0.8470 ha         1 SC6       0.133500
     66 H23         -1.8380    -5.1930     0.0760 ha         1 SC6       0.152000
     67 H25         -0.3330    -2.2290    -2.6640 ha         1 SC6       0.133500
     68 H26          7.0940     0.1010    -1.0690 h1         1 SC6       0.044700
     69 H182         6.1360     1.2250     1.6720 h1         1 SC6       0.070200
     70 HN3          4.6010    -1.0130     0.7630 hn         1 SC6       0.413000
     71 H201         5.1490     2.4650    -0.5440 hc         1 SC6       0.072700
     72 H202         5.5380     1.7330    -2.1110 hc         1 SC6       0.072700
     73 H27          4.6380    -0.4560    -1.4100 h1         1 SC6       0.038700
     74 H32          8.9280    -0.4930    -0.2610 ha         1 SC6       0.119500
     75 H33         10.9460    -1.0380     1.0330 ha         1 SC6       0.113000
     76 H34         12.0190     0.6790     2.4840 ha         1 SC6       0.116000
     77 H35         11.0500     2.9710     2.6300 ha         1 SC6       0.113000
     78 H36          8.9970     3.5360     1.3410 ha         1 SC6       0.119500
     79 H371        -9.5930     4.4900     1.9970 h1         1 SC6       0.027700
     80 H372        -7.8460     4.8280     2.0830 h1         1 SC6       0.027700
     81 H373        -8.7320     5.0970     0.5660 h1         1 SC6       0.027700
     82 H181         6.7040    -0.4220     1.3480 h1         1 SC6       0.070200
     83 C37         -8.6480     4.4410     1.4410 c3         1 SC6       0.144900
@<TRIPOS>BOND
     1     1     2 ar  
     2     1     6 ar  
     3     1    44 1   
     4     2     3 ar  
     5     2    15 1   
     6     3     4 ar  
     7     3    45 1   
     8     4     5 ar  
     9     4    16 1   
    10     5     6 ar  
    11     5    46 1   
    12     6     7 1   
    13     7     8 1   
    14     7     9 2   
    15     8    10 1   
    16     8    13 1   
    17    10    11 1   
    18    10    47 1   
    19    10    48 1   
    20    11    12 1   
    21    11    49 1   
    22    11    50 1   
    23    12    13 1   
    24    12    51 1   
    25    12    52 1   
    26    13    14 1   
    27    13    53 1   
    28    14    43 1   
    29    14    54 1   
    30    14    55 1   
    31    15    56 1   
    32    15    57 1   
    33    15    58 1   
    34    16    17 1   
    35    16    18 2   
    36    17    19 1   
    37    17    59 1   
    38    19    20 1   
    39    19    21 1   
    40    19    60 1   
    41    20    22 1   
    42    20    35 1   
    43    20    61 1   
    44    21    23 1   
    45    21    62 1   
    46    21    63 1   
    47    22    64 1   
    48    23    24 ar  
    49    23    28 ar  
    50    24    25 ar  
    51    24    65 1   
    52    25    26 ar  
    53    25    29 1   
    54    26    27 ar  
    55    26    66 1   
    56    27    28 ar  
    57    27    30 1   
    58    28    67 1   
    59    31    32 1   
    60    31    34 1   
    61    31    36 1   
    62    31    68 1   
    63    32    33 1   
    64    32    69 1   
    65    32    82 1   
    66    33    35 1   
    67    33    70 1   
    68    34    35 1   
    69    34    71 1   
    70    34    72 1   
    71    35    73 1   
    72    36    37 1   
    73    37    38 ar  
    74    37    42 ar  
    75    38    39 ar  
    76    38    74 1   
    77    39    40 ar  
    78    39    75 1   
    79    40    41 ar  
    80    40    76 1   
    81    41    42 ar  
    82    41    77 1   
    83    42    78 1   
    84    43    83 1   
    85    79    83 1   
    86    80    83 1   
    87    81    83 1   
@<TRIPOS>SUBSTRUCTURE
     1 SC6         1 TEMP              0 ****  ****    0 ROOT
