@<TRIPOS>MOLECULE
SC6
   83    87     1     0     0
SMALL
abcg2


@<TRIPOS>ATOM
      1 C1          -4.0690     2.4260    -0.4860 ca         1 SC6      -0.067000
      2 C2          -2.9280     2.9810    -1.0550 ca         1 SC6      -0.092300
      3 C3          -1.6900     2.4410    -0.7150 ca         1 SC6      -0.077000
      4 C4          -1.5890     1.4080     0.2110 ca         1 SC6      -0.158600
      5 C5          -2.7350     0.9090     0.8180 ca         1 SC6      -0.025000
      6 C6          -3.9790     1.3900     0.4390 ca         1 SC6      -0.143600
      7 C7          -5.1970     0.8140     1.0890 c          1 SC6       0.620700
      8 N1          -6.1720     0.3820     0.2780 n          1 SC6      -0.397800
      9 O1          -5.2670     0.7550     2.3120 o          1 SC6      -0.603100
     10 C8          -6.0430     0.1190    -1.1530 c5         1 SC6       0.108000
     11 C9          -6.9460    -1.0880    -1.3520 c5         1 SC6      -0.096400
     12 C10         -8.0980    -0.8010    -0.3980 c5         1 SC6      -0.091400
     13 C11         -7.4290    -0.1470     0.8170 c5         1 SC6       0.113700
     14 C12         -8.2860     0.9230     1.4720 c3         1 SC6       0.145600
     15 C30         -3.0250     4.1400    -2.0020 c3         1 SC6      -0.046800
     16 C14         -0.2860     0.7730     0.5750 c          1 SC6       0.613700
     17 N2           0.5800     0.6240    -0.4470 ns         1 SC6      -0.493900
     18 O2          -0.0650     0.3950     1.7150 o          1 SC6      -0.584100
     19 C15          1.7450    -0.2300    -0.3830 c3         1 SC6       0.084700
     20 C16          2.9150     0.4630    -1.0900 c3         1 SC6       0.168300
     21 C17          1.4060    -1.6190    -0.9600 c3         1 SC6      -0.059100
     22 O3           2.5990     0.7920    -2.4260 oh         1 SC6      -0.659000
     23 C19          0.2110    -2.2130    -0.2730 ca         1 SC6      -0.025300
     24 C21          0.3660    -2.8950     0.9300 ca         1 SC6      -0.163500
     25 C22         -0.7560    -3.3460     1.5930 ca         1 SC6       0.203500
     26 C23         -2.0390    -3.1520     1.1180 ca         1 SC6      -0.193000
     27 C24         -2.1570    -2.4810    -0.0830 ca         1 SC6       0.203500
     28 C25         -1.0660    -2.0130    -0.7890 ca         1 SC6      -0.163500
     29 F2          -0.6020    -4.0030     2.7520 f          1 SC6      -0.174500
     30 F1          -3.3860    -2.2700    -0.5750 f          1 SC6      -0.174500
     31 C26          6.5360     0.1860    -0.5930 c5         1 SC6       0.138300
     32 C18          5.7770     0.0750     0.7320 c5         1 SC6       0.120800
     33 N3           4.5540    -0.6320     0.3930 n7         1 SC6      -0.852400
     34 C20          5.4090     0.4720    -1.5770 c5         1 SC6      -0.096400
     35 C27          4.2210    -0.3240    -1.0050 c5         1 SC6       0.132500
     36 O4           7.4880     1.2300    -0.6500 os         1 SC6      -0.338100
     37 C31          8.6730     1.1020    -0.0170 ca         1 SC6       0.142100
     38 C32          9.0850    -0.0320     0.6800 ca         1 SC6      -0.171000
     39 C33         10.3360    -0.0510     1.2880 ca         1 SC6      -0.073500
     40 C34         11.1840     1.0420     1.2130 ca         1 SC6      -0.146000
     41 C35         10.7680     2.1710     0.5140 ca         1 SC6      -0.073500
     42 C36          9.5270     2.2050    -0.0970 ca         1 SC6      -0.171000
     43 O5          -8.4670     1.9870     0.5780 os         1 SC6      -0.451000
     44 H1          -5.0420     2.8180    -0.7620 ha         1 SC6       0.125000
     45 H3          -0.7970     2.8540    -1.1700 ha         1 SC6       0.118000
     46 H5          -2.6570     0.1170     1.5500 ha         1 SC6       0.146000
     47 H81         -6.3980     0.9690    -1.7420 h1         1 SC6       0.052700
     48 H82         -5.0080    -0.0750    -1.4270 h1         1 SC6       0.052700
     49 H91         -7.2640    -1.2000    -2.3880 hc         1 SC6       0.054700
     50 H92         -6.4190    -1.9990    -1.0600 hc         1 SC6       0.054700
     51 H101        -8.8010    -0.1080    -0.8630 hc         1 SC6       0.057200
     52 H102        -8.6510    -1.6950    -0.1110 hc         1 SC6       0.057200
     53 H11         -7.2100    -0.9020     1.5790 h1         1 SC6       0.068700
     54 H121        -9.2480     0.4640     1.7480 h1         1 SC6       0.037700
     55 H122        -7.8210     1.2690     2.4030 h1         1 SC6       0.037700
     56 H301        -2.9200     5.0870    -1.4680 hc         1 SC6       0.044367
     57 H302        -2.2410     4.1040    -2.7580 hc         1 SC6       0.044367
     58 H303        -3.9870     4.1600    -2.5120 hc         1 SC6       0.044367
     59 HN2          0.2690     0.8780    -1.3730 hn         1 SC6       0.316500
     60 H15          2.0220    -0.3420     0.6640 h1         1 SC6       0.113700
     61 H16          3.0630     1.4200    -0.5760 h1         1 SC6       0.097700
     62 H171         1.2080    -1.5400    -2.0320 hc         1 SC6       0.049200
     63 H172         2.2670    -2.2800    -0.8420 hc         1 SC6       0.049200
     64 HO3          2.6870     0.0070    -2.9770 ho         1 SC6       0.437000
     65 H21          1.3490    -3.0580     1.3530 ha         1 SC6       0.133500
     66 H23         -2.9060    -3.5120     1.6570 ha         1 SC6       0.152000
     67 H25         -1.2150    -1.4930    -1.7270 ha         1 SC6       0.133500
     68 H26          7.0060    -0.7750    -0.8350 h1         1 SC6       0.044700
     69 H182         5.5590     1.0810     1.1060 h1         1 SC6       0.070200
     70 HN3          4.6920    -1.6260     0.5020 hn         1 SC6       0.413000
     71 H201         5.1990     1.5460    -1.5740 hc         1 SC6       0.072700
     72 H202         5.6550     0.1840    -2.5980 hc         1 SC6       0.072700
     73 H27          4.1110    -1.2610    -1.5640 h1         1 SC6       0.038700
     74 H32          8.4530    -0.9060     0.7650 ha         1 SC6       0.119500
     75 H33         10.6410    -0.9380     1.8280 ha         1 SC6       0.113000
     76 H34         12.1540     1.0200     1.6930 ha         1 SC6       0.116000
     77 H35         11.4160     3.0350     0.4450 ha         1 SC6       0.113000
     78 H36          9.2070     3.0850    -0.6410 ha         1 SC6       0.119500
     79 H371       -10.3360     2.5770     1.2760 h1         1 SC6       0.027700
     80 H372        -8.9590     3.4130     2.0130 h1         1 SC6       0.027700
     81 H373        -9.4130     3.7630     0.3360 h1         1 SC6       0.027700
     82 H181         6.3160    -0.4560     1.5160 h1         1 SC6       0.070200
     83 C37         -9.3320     2.9710     1.0800 c3         1 SC6       0.144900
@<TRIPOS>BOND
     1     1     2 ar  
     2     1     6 ar  
     3     1    44 1   
     4     2     3 ar  
     5     2    15 1   
     6     3     4 ar  
     7     3    45 1   
     8     4     5 ar  
     9     4    16 1   
    10     5     6 ar  
    11     5    46 1   
    12     6     7 1   
    13     7     8 1   
    14     7     9 2   
    15     8    10 1   
    16     8    13 1   
    17    10    11 1   
    18    10    47 1   
    19    10    48 1   
    20    11    12 1   
    21    11    49 1   
    22    11    50 1   
    23    12    13 1   
    24    12    51 1   
    25    12    52 1   
    26    13    14 1   
    27    13    53 1   
    28    14    43 1   
    29    14    54 1   
    30    14    55 1   
    31    15    56 1   
    32    15    57 1   
    33    15    58 1   
    34    16    17 1   
    35    16    18 2   
    36    17    19 1   
    37    17    59 1   
    38    19    20 1   
    39    19    21 1   
    40    19    60 1   
    41    20    22 1   
    42    20    35 1   
    43    20    61 1   
    44    21    23 1   
    45    21    62 1   
    46    21    63 1   
    47    22    64 1   
    48    23    24 ar  
    49    23    28 ar  
    50    24    25 ar  
    51    24    65 1   
    52    25    26 ar  
    53    25    29 1   
    54    26    27 ar  
    55    26    66 1   
    56    27    28 ar  
    57    27    30 1   
    58    28    67 1   
    59    31    32 1   
    60    31    34 1   
    61    31    36 1   
    62    31    68 1   
    63    32    33 1   
    64    32    69 1   
    65    32    82 1   
    66    33    35 1   
    67    33    70 1   
    68    34    35 1   
    69    34    71 1   
    70    34    72 1   
    71    35    73 1   
    72    36    37 1   
    73    37    38 ar  
    74    37    42 ar  
    75    38    39 ar  
    76    38    74 1   
    77    39    40 ar  
    78    39    75 1   
    79    40    41 ar  
    80    40    76 1   
    81    41    42 ar  
    82    41    77 1   
    83    42    78 1   
    84    43    83 1   
    85    79    83 1   
    86    80    83 1   
    87    81    83 1   
@<TRIPOS>SUBSTRUCTURE
     1 SC6         1 TEMP              0 ****  ****    0 ROOT
