@<TRIPOS>MOLECULE
SC7
   83    85     1     0     0
SMALL
bcc


@<TRIPOS>ATOM
      1 F1           0.6020    -5.3100     0.8420 f          1 SC7      -0.138400
      2 F2          -1.5120    -3.3650    -2.8420 f          1 SC7      -0.138400
      3 C1          -3.9750     1.3670    -1.5020 ca         1 SC7      -0.082000
      4 C2          -3.9570     0.5000    -0.4160 ca         1 SC7      -0.146600
      5 C3          -2.7460     0.0390     0.0790 ca         1 SC7      -0.042000
      6 C4          -1.5480     0.4690    -0.4830 ca         1 SC7      -0.150600
      7 C5          -1.5870     1.3420    -1.5670 ca         1 SC7      -0.093000
      8 C6          -2.7920     1.7980    -2.0920 ca         1 SC7      -0.091300
      9 N1          -6.0740     0.8340     0.7470 n          1 SC7      -0.470800
     10 O1          -5.4660    -1.2360     0.0760 o          1 SC7      -0.587100
     11 C8          -5.7220     2.2040     1.0940 c3         1 SC7       0.098500
     12 C9          -7.3310     0.3360     1.2860 c3         1 SC7       0.098500
     13 C10         -7.2060    -0.2270     2.6970 c3         1 SC7      -0.096900
     14 C11         -8.5540    -0.6870     3.2320 c3         1 SC7      -0.088600
     15 C12         -6.4490     3.2620     0.2730 c3         1 SC7      -0.096900
     16 C13         -6.0350     4.6630     0.6990 c3         1 SC7      -0.088600
     17 C14         -2.8120     2.7580    -3.2440 c3         1 SC7      -0.046800
     18 N2           0.8680     0.3160    -0.4740 ns         1 SC7      -0.568900
     19 C16          2.1710    -0.2200    -0.1500 c3         1 SC7       0.093700
     20 C17          3.1760     0.9410    -0.1310 c3         1 SC7       0.136100
     21 O3           3.0980     1.7070    -1.3150 oh         1 SC7      -0.596800
     22 C19          1.5220    -2.4300    -1.1270 ca         1 SC7      -0.025300
     23 C20          1.5660    -3.4190    -0.1490 ca         1 SC7      -0.182000
     24 C21          0.5600    -4.3610    -0.1040 ca         1 SC7       0.169400
     25 C22         -0.4980    -4.3730    -0.9940 ca         1 SC7      -0.211000
     26 C23         -0.5050    -3.3830    -1.9560 ca         1 SC7       0.169400
     27 C24          0.4780    -2.4180    -2.0470 ca         1 SC7      -0.182000
     28 C25          4.6120     0.4980     0.1570 c6         1 SC7       0.132500
     29 C26          5.5400     1.7010     0.3610 c6         1 SC7      -0.109400
     30 C27          6.9600     1.2330     0.6420 c6         1 SC7       0.154100
     31 C28          6.9740     0.2570     1.8140 c6         1 SC7      -0.148400
     32 C29          5.9840    -0.8820     1.5700 c6         1 SC7       0.153800
     33 N3           4.6350    -0.4280     1.2750 n7         1 SC7      -0.795200
     34 O4           7.7560     2.3760     0.8690 os         1 SC7      -0.413600
     35 C30          9.1430     2.1700     0.7160 c3         1 SC7       0.140400
     36 C31          9.8590     3.4900     0.9040 c3         1 SC7      -0.093100
     37 H1          -4.9210     1.7040    -1.9080 ha         1 SC7       0.138000
     38 H3          -2.7270    -0.6520     0.9100 ha         1 SC7       0.169000
     39 H5          -0.6790     1.6970    -2.0390 ha         1 SC7       0.126000
     40 H81         -5.9470     2.3500     2.1550 h1         1 SC7       0.052950
     41 H82         -4.6450     2.3350     0.9970 h1         1 SC7       0.052950
     42 H91         -8.0450     1.1630     1.2810 h1         1 SC7       0.052950
     43 H92         -7.7340    -0.4240     0.6160 h1         1 SC7       0.052950
     44 H101        -6.5030    -1.0630     2.6930 hc         1 SC7       0.046950
     45 H102        -6.7850     0.5340     3.3600 hc         1 SC7       0.046950
     46 H111        -8.4640    -1.0840     4.2430 hc         1 SC7       0.034367
     47 H112        -9.2710     0.1350     3.2630 hc         1 SC7       0.034367
     48 H113        -8.9790    -1.4730     2.6050 hc         1 SC7       0.034367
     49 H121        -6.2320     3.1190    -0.7880 hc         1 SC7       0.046950
     50 H122        -7.5300     3.1470     0.3850 hc         1 SC7       0.046950
     51 H131        -6.5600     5.4220     0.1200 hc         1 SC7       0.034367
     52 H132        -6.2570     4.8380     1.7530 hc         1 SC7       0.034367
     53 H133        -4.9650     4.8170     0.5550 hc         1 SC7       0.034367
     54 H141        -2.8170     3.7900    -2.8860 hc         1 SC7       0.044367
     55 H142        -1.9370     2.6400    -3.8810 hc         1 SC7       0.044367
     56 H143        -3.7000     2.6260    -3.8610 hc         1 SC7       0.044367
     57 HN2          0.8410     0.9280    -1.2720 hn         1 SC7       0.319500
     58 H16          2.1260    -0.6440     0.8510 h1         1 SC7       0.103700
     59 H17          2.8550     1.6170     0.6710 h1         1 SC7       0.083700
     60 HO3          3.5500     1.2400    -2.0260 ho         1 SC7       0.403000
     61 H181         2.6590    -0.9390    -2.1430 hc         1 SC7       0.055700
     62 H182         3.5210    -1.7480    -0.8350 hc         1 SC7       0.055700
     63 H20          2.3670    -3.4410     0.5790 ha         1 SC7       0.151000
     64 H22         -1.2770    -5.1220    -0.9420 ha         1 SC7       0.169000
     65 H24          0.4230    -1.6630    -2.8210 ha         1 SC7       0.151000
     66 H25          4.9760    -0.0590    -0.7190 h1         1 SC7       0.055700
     67 H261         5.5290     2.3480    -0.5190 hc         1 SC7       0.064700
     68 H262         5.1750     2.2940     1.2080 hc         1 SC7       0.064700
     69 H27          7.3270     0.7020    -0.2530 h1         1 SC7       0.029700
     70 H281         7.9740    -0.1570     1.9710 hc         1 SC7       0.054200
     71 H282         6.6970     0.7900     2.7300 hc         1 SC7       0.054200
     72 H291         6.3280    -1.4950     0.7310 h1         1 SC7       0.055700
     73 H292         5.9490    -1.5400     2.4390 h1         1 SC7       0.055700
     74 HN3          4.2610     0.0360     2.0960 hn         1 SC7       0.357800
     75 H301         9.5230     1.4390     1.4410 h1         1 SC7       0.018700
     76 H302         9.3580     1.7640    -0.2820 h1         1 SC7       0.018700
     77 H311        10.9320     3.3510     0.7740 hc         1 SC7       0.043367
     78 H312         9.5260     4.2300     0.1740 hc         1 SC7       0.043367
     79 H313         9.6930     3.8940     1.9030 hc         1 SC7       0.043367
     80 C18          2.5530    -1.3420    -1.1320 c3         1 SC7      -0.053100
     81 C15         -0.2780    -0.0660     0.1150 c          1 SC7       0.687700
     82 C7          -5.2300    -0.0380     0.1640 c          1 SC7       0.680700
     83 O2          -0.3140    -0.8050     1.0870 o          1 SC7      -0.599100
@<TRIPOS>BOND
     1     1    24 1   
     2     2    26 1   
     3     3     4 ar  
     4     3     8 ar  
     5     3    37 1   
     6     4     5 ar  
     7     4    82 1   
     8     5     6 ar  
     9     5    38 1   
    10     6     7 ar  
    11     6    81 1   
    12     7     8 ar  
    13     7    39 1   
    14     8    17 1   
    15     9    11 1   
    16     9    12 1   
    17     9    82 1   
    18    10    82 2   
    19    11    15 1   
    20    11    40 1   
    21    11    41 1   
    22    12    13 1   
    23    12    42 1   
    24    12    43 1   
    25    13    14 1   
    26    13    44 1   
    27    13    45 1   
    28    14    46 1   
    29    14    47 1   
    30    14    48 1   
    31    15    16 1   
    32    15    49 1   
    33    15    50 1   
    34    16    51 1   
    35    16    52 1   
    36    16    53 1   
    37    17    54 1   
    38    17    55 1   
    39    17    56 1   
    40    18    19 1   
    41    18    57 1   
    42    18    81 1   
    43    19    20 1   
    44    19    58 1   
    45    19    80 1   
    46    20    21 1   
    47    20    28 1   
    48    20    59 1   
    49    21    60 1   
    50    22    23 ar  
    51    22    27 ar  
    52    22    80 1   
    53    23    24 ar  
    54    23    63 1   
    55    24    25 ar  
    56    25    26 ar  
    57    25    64 1   
    58    26    27 ar  
    59    27    65 1   
    60    28    29 1   
    61    28    33 1   
    62    28    66 1   
    63    29    30 1   
    64    29    67 1   
    65    29    68 1   
    66    30    31 1   
    67    30    34 1   
    68    30    69 1   
    69    31    32 1   
    70    31    70 1   
    71    31    71 1   
    72    32    33 1   
    73    32    72 1   
    74    32    73 1   
    75    33    74 1   
    76    34    35 1   
    77    35    36 1   
    78    35    75 1   
    79    35    76 1   
    80    36    77 1   
    81    36    78 1   
    82    36    79 1   
    83    61    80 1   
    84    62    80 1   
    85    81    83 2   
@<TRIPOS>SUBSTRUCTURE
     1 SC7         1 TEMP              0 ****  ****    0 ROOT
