@<TRIPOS>MOLECULE
SC7
   83    85     1     0     0
SMALL
No Charge or Current Charge


@<TRIPOS>ATOM
      1 F1           0.8620    -5.6360     0.4100 f          1 SC7      -0.173500
      2 F2          -1.2940    -3.5650    -3.2940 f          1 SC7      -0.173500
      3 C1          -3.9580     1.3490    -1.0780 ca         1 SC7      -0.064000
      4 C2          -3.8900     0.4590     0.0150 ca         1 SC7      -0.146600
      5 C3          -2.6360    -0.0630     0.3940 ca         1 SC7      -0.024000
      6 C4          -1.4500     0.3250    -0.2700 ca         1 SC7      -0.150600
      7 C5          -1.5430     1.2400    -1.3460 ca         1 SC7      -0.075000
      8 C6          -2.7910     1.7440    -1.7530 ca         1 SC7      -0.091300
      9 N1          -6.2520     0.8720     0.8010 n          1 SC7      -0.403800
     10 O1          -5.2030    -1.1440     1.1810 o          1 SC7      -0.587100
     11 C8          -6.0300     2.3120     1.1210 c3         1 SC7       0.098500
     12 C9          -7.5850     0.3050     1.1480 c3         1 SC7       0.098500
     13 C10         -7.9430     0.3800     2.6500 c3         1 SC7      -0.096900
     14 C11         -9.2920    -0.2900     2.9760 c3         1 SC7      -0.088600
     15 C12         -7.1010     3.2750     0.5580 c3         1 SC7      -0.096900
     16 C13         -6.7550     4.7570     0.7980 c3         1 SC7      -0.088600
     17 C14         -2.8780     2.7150    -2.9210 c3         1 SC7      -0.046800
     18 N2           0.9940     0.1630    -0.4980 ns         1 SC7      -0.501900
     19 C16          2.3610    -0.3440    -0.2910 c3         1 SC7       0.093700
     20 C17          3.3750     0.8440    -0.2230 c3         1 SC7       0.159300
     21 O3           3.2750     1.6340    -1.4290 oh         1 SC7      -0.659000
     22 C19          1.6820    -2.5540    -1.4020 ca         1 SC7      -0.025300
     23 C20          1.7480    -3.6050    -0.4680 ca         1 SC7      -0.164000
     24 C21          0.7920    -4.6330    -0.4920 ca         1 SC7       0.204500
     25 C22         -0.2360    -4.6260    -1.4450 ca         1 SC7      -0.193000
     26 C23         -0.3030    -3.5810    -2.3760 ca         1 SC7       0.204500
     27 C24          0.6490    -2.5500    -2.3600 ca         1 SC7      -0.164000
     28 C25          4.8630     0.4340     0.0910 c6         1 SC7       0.132500
     29 C26          5.8050     1.6600     0.2310 c6         1 SC7      -0.109400
     30 C27          7.2550     1.2210     0.5390 c6         1 SC7       0.177300
     31 C28          7.2810     0.2960     1.7840 c6         1 SC7      -0.148400
     32 C29          6.3000    -0.8830     1.6140 c6         1 SC7       0.153800
     33 N3           4.9360    -0.3880     1.3290 n7         1 SC7      -0.850400
     34 O4           8.0760     2.3940     0.7230 os         1 SC7      -0.460000
     35 C30          9.4950     2.1970     0.8520 c3         1 SC7       0.163600
     36 C31         10.1500     3.5850     0.9190 c3         1 SC7      -0.093100
     37 H1          -4.9210     1.7270    -1.4150 ha         1 SC7       0.120000
     38 H3          -2.5840    -0.7700     1.2200 ha         1 SC7       0.151000
     39 H5          -0.6570     1.5630    -1.8840 ha         1 SC7       0.108000
     40 H81         -6.0010     2.4210     2.2120 h1         1 SC7       0.052950
     41 H82         -5.0490     2.6410     0.7610 h1         1 SC7       0.052950
     42 H91         -8.3540     0.8320     0.5690 h1         1 SC7       0.052950
     43 H92         -7.6270    -0.7430     0.8250 h1         1 SC7       0.052950
     44 H101        -7.1530    -0.1070     3.2340 hc         1 SC7       0.046950
     45 H102        -7.9840     1.4260     2.9740 hc         1 SC7       0.046950
     46 H111        -9.5060    -0.2160     4.0490 hc         1 SC7       0.034367
     47 H112       -10.1080     0.1970     2.4290 hc         1 SC7       0.034367
     48 H113        -9.2740    -1.3510     2.7020 hc         1 SC7       0.034367
     49 H121        -7.2060     3.1040    -0.5200 hc         1 SC7       0.046950
     50 H122        -8.0740     3.0650     1.0160 hc         1 SC7       0.046950
     51 H131        -7.5380     5.4040     0.3850 hc         1 SC7       0.034367
     52 H132        -6.6680     4.9660     1.8710 hc         1 SC7       0.034367
     53 H133        -5.8050     5.0170     0.3160 hc         1 SC7       0.034367
     54 H141        -2.7540     3.7490    -2.5790 hc         1 SC7       0.044367
     55 H142        -2.1000     2.5130    -3.6680 hc         1 SC7       0.044367
     56 H143        -3.8460     2.6450    -3.4310 hc         1 SC7       0.044367
     57 HN2          0.8590     0.8610    -1.2170 hn         1 SC7       0.319500
     58 H16          2.3920    -0.8420     0.6880 h1         1 SC7       0.103700
     59 H17          3.0520     1.4650     0.6250 h1         1 SC7       0.083700
     60 HO3          3.6840     1.1150    -2.1540 ho         1 SC7       0.442000
     61 H181         2.7760    -0.9510    -2.3450 hc         1 SC7       0.055700
     62 H182         3.6930    -1.8420    -1.1460 hc         1 SC7       0.055700
     63 H20          2.5340    -3.6230     0.2830 ha         1 SC7       0.133000
     64 H22         -0.9740    -5.4210    -1.4590 ha         1 SC7       0.151000
     65 H24          0.5760    -1.7450    -3.0860 ha         1 SC7       0.133000
     66 H25          5.2240    -0.1760    -0.7510 h1         1 SC7       0.055700
     67 H261         5.7990     2.2490    -0.6950 hc         1 SC7       0.064700
     68 H262         5.4410     2.3230     1.0270 hc         1 SC7       0.064700
     69 H27          7.6390     0.6620    -0.3280 h1         1 SC7       0.029700
     70 H281         8.2900    -0.1060     1.9440 hc         1 SC7       0.054200
     71 H282         7.0200     0.8710     2.6830 hc         1 SC7       0.054200
     72 H291         6.6380    -1.5310     0.7910 h1         1 SC7       0.055700
     73 H292         6.2910    -1.4920     2.5310 h1         1 SC7       0.055700
     74 HN3          4.6300     0.1830     2.1270 hn         1 SC7       0.413000
     75 H301         9.7370     1.6410     1.7670 h1         1 SC7       0.018700
     76 H302         9.8920     1.6460    -0.0100 h1         1 SC7       0.018700
     77 H311        11.2380     3.4860     1.0160 hc         1 SC7       0.043367
     78 H312         9.9370     4.1580     0.0090 hc         1 SC7       0.043367
     79 H313         9.7780     4.1470     1.7840 hc         1 SC7       0.043367
     80 C18          2.7020    -1.4230    -1.3580 c3         1 SC7      -0.053100
     81 C15         -0.1280    -0.2580     0.1830 c          1 SC7       0.620700
     82 C7          -5.1370    -0.0020     0.7410 c          1 SC7       0.613700
     83 O2          -0.0530    -1.0610     1.1030 o          1 SC7      -0.599100
@<TRIPOS>BOND
     1     1    24 1   
     2     2    26 1   
     3     3     4 ar  
     4     3     8 ar  
     5     3    37 1   
     6     4     5 ar  
     7     4    82 1   
     8     5     6 ar  
     9     5    38 1   
    10     6     7 ar  
    11     6    81 1   
    12     7     8 ar  
    13     7    39 1   
    14     8    17 1   
    15     9    11 1   
    16     9    12 1   
    17     9    82 1   
    18    10    82 2   
    19    11    15 1   
    20    11    40 1   
    21    11    41 1   
    22    12    13 1   
    23    12    42 1   
    24    12    43 1   
    25    13    14 1   
    26    13    44 1   
    27    13    45 1   
    28    14    46 1   
    29    14    47 1   
    30    14    48 1   
    31    15    16 1   
    32    15    49 1   
    33    15    50 1   
    34    16    51 1   
    35    16    52 1   
    36    16    53 1   
    37    17    54 1   
    38    17    55 1   
    39    17    56 1   
    40    18    19 1   
    41    18    57 1   
    42    18    81 1   
    43    19    20 1   
    44    19    58 1   
    45    19    80 1   
    46    20    21 1   
    47    20    28 1   
    48    20    59 1   
    49    21    60 1   
    50    22    23 ar  
    51    22    27 ar  
    52    22    80 1   
    53    23    24 ar  
    54    23    63 1   
    55    24    25 ar  
    56    25    26 ar  
    57    25    64 1   
    58    26    27 ar  
    59    27    65 1   
    60    28    29 1   
    61    28    33 1   
    62    28    66 1   
    63    29    30 1   
    64    29    67 1   
    65    29    68 1   
    66    30    31 1   
    67    30    34 1   
    68    30    69 1   
    69    31    32 1   
    70    31    70 1   
    71    31    71 1   
    72    32    33 1   
    73    32    72 1   
    74    32    73 1   
    75    33    74 1   
    76    34    35 1   
    77    35    36 1   
    78    35    75 1   
    79    35    76 1   
    80    36    77 1   
    81    36    78 1   
    82    36    79 1   
    83    61    80 1   
    84    62    80 1   
    85    81    83 2   
@<TRIPOS>SUBSTRUCTURE
     1 SC7         1 TEMP              0 ****  ****    0 ROOT
