@<TRIPOS>MOLECULE
SC8
   38    41     1     0     0
SMALL
No Charge or Current Charge


@<TRIPOS>ATOM
      1 C01          0.3660     3.6120     0.3690 cc         1 SC8      -0.395600
      2 C02          0.3430     2.2760     0.1990 cd         1 SC8       0.421500
      3 N03         -0.9840     1.9530     0.1250 na         1 SC8       0.065900
      4 N04         -1.8740     3.0220     0.2400 nd         1 SC8      -0.620100
      5 C05         -0.9940     4.0140     0.3850 cc         1 SC8       0.404500
      6 N06          1.4720     1.5020     0.1430 nd         1 SC8      -0.666000
      7 C07          1.1290     0.2230    -0.0430 cc         1 SC8       0.478500
      8 C08         -0.2490    -0.2390    -0.1010 cc         1 SC8      -0.331000
      9 C09         -1.3330     0.6140    -0.0270 cd         1 SC8       0.404000
     10 N10         -2.6460     0.2260    -0.0990 nu         1 SC8      -0.957200
     11 C11          2.2170    -0.7870    -0.0360 ca         1 SC8      -0.132500
     12 C12         -3.1740    -1.1390    -0.2020 c3         1 SC8       0.275100
     13 C13         -4.6960    -1.1050    -0.1720 ca         1 SC8      -0.076300
     14 C14         -5.4470    -0.9850    -1.3550 ca         1 SC8      -0.151500
     15 C15         -6.8510    -0.9510    -1.2820 ca         1 SC8       0.337900
     16 N16         -7.5300    -1.0290    -0.1130 nb         1 SC8      -0.655000
     17 C17         -6.8090    -1.1410     1.0270 ca         1 SC8       0.337900
     18 C18         -5.4030    -1.1810     1.0430 ca         1 SC8      -0.151500
     19 C19          1.9740    -2.0510     0.5640 ca         1 SC8      -0.085000
     20 C20          2.9810    -3.0240     0.6600 ca         1 SC8      -0.106000
     21 C21          4.2630    -2.7590     0.1680 ca         1 SC8      -0.088000
     22 C22          4.5390    -1.5200    -0.4240 ca         1 SC8       0.110000
     23 C23          3.5350    -0.5280    -0.5280 ca         1 SC8       0.150000
     24 Cl24         3.9570     0.9600    -1.4020 cl         1 SC8      -0.153000
     25 Cl25         6.1690    -1.2430    -1.0480 cl         1 SC8      -0.171000
     26 H01          1.2290     4.2570     0.4750 ha         1 SC8       0.230000
     27 H05         -1.3700     5.0220     0.5030 h4         1 SC8       0.045800
     28 H08         -0.4320    -1.2930    -0.2500 ha         1 SC8       0.139000
     29 HN10        -3.3120     0.9980    -0.0110 hn         1 SC8       0.530000
     30 H121        -2.8380    -1.6080    -1.1380 h1         1 SC8       0.060700
     31 H122        -2.8060    -1.7550     0.6300 h1         1 SC8       0.060700
     32 H14         -4.9570    -0.9150    -2.3230 ha         1 SC8       0.129500
     33 H15         -7.4510    -0.8590    -2.1870 h4         1 SC8       0.023600
     34 H17         -7.3750    -1.1990     1.9560 h4         1 SC8       0.023600
     35 H18         -4.8780    -1.2690     1.9900 ha         1 SC8       0.129500
     36 H19          1.0090    -2.2860     1.0060 ha         1 SC8       0.125000
     37 H20          2.7670    -3.9820     1.1310 ha         1 SC8       0.124000
     38 H21          5.0430    -3.5130     0.2430 ha         1 SC8       0.133000
@<TRIPOS>BOND
     1     1     2 2   
     2     1     5 1   
     3     1    26 1   
     4     2     3 1   
     5     2     6 1   
     6     3     4 1   
     7     3     9 1   
     8     4     5 2   
     9     5    27 1   
    10     6     7 2   
    11     7     8 1   
    12     7    11 1   
    13     8     9 2   
    14     8    28 1   
    15     9    10 1   
    16    10    12 1   
    17    10    29 1   
    18    11    19 ar  
    19    11    23 ar  
    20    12    13 1   
    21    12    30 1   
    22    12    31 1   
    23    13    14 ar  
    24    13    18 ar  
    25    14    15 ar  
    26    14    32 1   
    27    15    16 ar  
    28    15    33 1   
    29    16    17 ar  
    30    17    18 ar  
    31    17    34 1   
    32    18    35 1   
    33    19    20 ar  
    34    19    36 1   
    35    20    21 ar  
    36    20    37 1   
    37    21    22 ar  
    38    21    38 1   
    39    22    23 ar  
    40    22    25 1   
    41    23    24 1   
@<TRIPOS>SUBSTRUCTURE
     1 SC8         1 TEMP              0 ****  ****    0 ROOT
