@<TRIPOS>MOLECULE
SC8
   38    41     1     0     0
SMALL
abcg2


@<TRIPOS>ATOM
      1 C01          0.3020     3.6120     0.8740 cc         1 SC8      -0.395600
      2 C02          0.3540     2.2610     0.5580 cd         1 SC8       0.421500
      3 N03         -0.9460     1.9190     0.2360 na         1 SC8       0.065900
      4 N04         -1.7990     2.9450     0.3260 nd         1 SC8      -0.620100
      5 C05         -1.0400     3.9610     0.7090 cc         1 SC8       0.404500
      6 N06          1.3490     1.3680     0.5290 nd         1 SC8      -0.666000
      7 C07          1.0230     0.1490     0.1640 cc         1 SC8       0.478500
      8 C08         -0.2730    -0.2640    -0.1830 cc         1 SC8      -0.331000
      9 C09         -1.3050     0.6590    -0.1340 cd         1 SC8       0.404000
     10 N10         -2.5960     0.4560    -0.3970 nu         1 SC8      -0.957200
     11 C11          2.1090    -0.8630     0.1450 ca         1 SC8      -0.132500
     12 C12         -3.1300    -0.7960    -0.8770 c3         1 SC8       0.275100
     13 C13         -4.5780    -0.9460    -0.5000 ca         1 SC8      -0.076300
     14 C14         -5.4970    -1.4590    -1.4050 ca         1 SC8      -0.151500
     15 C15         -6.8160    -1.6200    -1.0080 ca         1 SC8       0.337900
     16 N16         -7.2600    -1.3040     0.2020 nb         1 SC8      -0.655000
     17 C17         -6.3790    -0.8110     1.0650 ca         1 SC8       0.337900
     18 C18         -5.0400    -0.6150     0.7690 ca         1 SC8      -0.151500
     19 C19          2.0030    -1.9820     0.9630 ca         1 SC8      -0.085000
     20 C20          3.0050    -2.9390     0.9940 ca         1 SC8      -0.106000
     21 C21          4.1270    -2.7940     0.1950 ca         1 SC8      -0.088000
     22 C22          4.2360    -1.6910    -0.6380 ca         1 SC8       0.110000
     23 C23          3.2340    -0.7250    -0.6670 ca         1 SC8       0.150000
     24 CL24         3.3730     0.6070    -1.7480 cl         1 SC8      -0.153000
     25 CL25         5.6270    -1.5360    -1.6430 cl         1 SC8      -0.171000
     26 H01          1.1220     4.2400     1.1740 ha         1 SC8       0.230000
     27 H05         -1.4890     4.9310     0.8580 h4         1 SC8       0.045800
     28 H08         -0.4540    -1.2790    -0.5000 ha         1 SC8       0.139000
     29 HN10        -3.1780     1.2800    -0.4620 hn         1 SC8       0.530000
     30 H121        -3.0120    -0.8890    -1.9600 h1         1 SC8       0.060700
     31 H122        -2.5720    -1.6170    -0.4240 h1         1 SC8       0.060700
     32 H14         -5.1990    -1.7290    -2.4110 ha         1 SC8       0.129500
     33 H15         -7.5450    -2.0170    -1.7060 h4         1 SC8       0.023600
     34 H17         -6.7550    -0.5580     2.0500 h4         1 SC8       0.023600
     35 H18         -4.3770    -0.2090     1.5220 ha         1 SC8       0.129500
     36 H19          1.1300    -2.0930     1.5920 ha         1 SC8       0.125000
     37 H20          2.9160    -3.7990     1.6430 ha         1 SC8       0.124000
     38 H21          4.9150    -3.5340     0.2110 ha         1 SC8       0.133000
@<TRIPOS>BOND
     1     1     2 2   
     2     1     5 1   
     3     1    26 1   
     4     2     3 1   
     5     2     6 1   
     6     3     4 1   
     7     3     9 1   
     8     4     5 2   
     9     5    27 1   
    10     6     7 2   
    11     7     8 1   
    12     7    11 1   
    13     8     9 2   
    14     8    28 1   
    15     9    10 1   
    16    10    12 1   
    17    10    29 1   
    18    11    19 ar  
    19    11    23 ar  
    20    12    13 1   
    21    12    30 1   
    22    12    31 1   
    23    13    14 ar  
    24    13    18 ar  
    25    14    15 ar  
    26    14    32 1   
    27    15    16 ar  
    28    15    33 1   
    29    16    17 ar  
    30    17    18 ar  
    31    17    34 1   
    32    18    35 1   
    33    19    20 ar  
    34    19    36 1   
    35    20    21 ar  
    36    20    37 1   
    37    21    22 ar  
    38    21    38 1   
    39    22    23 ar  
    40    22    25 1   
    41    23    24 1   
@<TRIPOS>SUBSTRUCTURE
     1 SC8         1 TEMP              0 ****  ****    0 ROOT
