@<TRIPOS>MOLECULE
SC9
   38    41     1     0     0
SMALL
bcc


@<TRIPOS>ATOM
      1 C01          1.4740    -3.9400    -0.3710 cc         1 SC9      -0.215100
      2 N02          1.4150    -2.5840    -0.2450 na         1 SC9       0.066700
      3 C03          0.0990    -2.2600    -0.0860 cc         1 SC9      -0.192600
      4 N04         -0.6750    -3.3240    -0.1020 nd         1 SC9      -0.279600
      5 C05          0.1720    -4.3670    -0.2760 cd         1 SC9       0.000600
      6 C06          2.3960    -1.6200    -0.2590 cc         1 SC9      -0.251600
      7 C07          2.0010    -0.3330    -0.0900 cd         1 SC9       0.494800
      8 N08          0.7020     0.0440     0.0790 nd         1 SC9      -0.769000
      9 C09         -0.2280    -0.8740     0.0680 cc         1 SC9       0.746200
     10 N10         -1.5240    -0.5420     0.1920 nu         1 SC9      -0.859900
     11 C11         -1.9510     0.8150     0.4560 c3         1 SC9       0.281100
     12 C12         -3.4430     0.9110     0.3250 ca         1 SC9      -0.235600
     13 C13         -4.2830     0.8460     1.4280 ca         1 SC9      -0.077000
     14 C14         -5.6550     0.9150     1.2370 ca         1 SC9      -0.251300
     15 C15         -6.1360     1.0430    -0.0570 ca         1 SC9       0.410200
     16 N16         -5.3460     1.1050    -1.1240 nb         1 SC9      -0.666000
     17 C17         -4.0360     1.0400    -0.9280 ca         1 SC9       0.424200
     18 C18          3.0160     0.7390    -0.0600 ca         1 SC9      -0.178500
     19 C19          2.9060     1.8690    -0.8620 ca         1 SC9       0.173900
     20 C20          3.8400     2.8860    -0.8480 ca         1 SC9      -0.179000
     21 C21          4.9360     2.7790    -0.0020 ca         1 SC9      -0.092000
     22 C22          5.0830     1.6620     0.8080 ca         1 SC9      -0.150000
     23 C23          4.1280     0.6570     0.7770 ca         1 SC9      -0.091000
     24 F24          1.8700     1.9690    -1.7060 f          1 SC9      -0.129900
     25 H01          2.4020    -4.4670    -0.5100 h4         1 SC9       0.184000
     26 H05         -0.1810    -5.3850    -0.3280 h4         1 SC9       0.179000
     27 H06          3.4140    -1.9400    -0.4150 h4         1 SC9       0.173000
     28 HN10        -2.1860    -1.2900     0.3230 hn         1 SC9       0.464800
     29 H111        -1.6380     1.1410     1.4530 h1         1 SC9       0.064200
     30 H112        -1.4660     1.4820    -0.2600 h1         1 SC9       0.064200
     31 H13         -3.8720     0.7460     2.4250 ha         1 SC9       0.139000
     32 H14         -6.3400     0.8710     2.0720 ha         1 SC9       0.144000
     33 H15         -7.2030     1.0980    -0.2400 h4         1 SC9       0.020100
     34 H17         -3.4110     1.0970    -1.8140 h4         1 SC9       0.027100
     35 H20          3.7140     3.7440    -1.4960 ha         1 SC9       0.151000
     36 H21          5.6720     3.5710     0.0180 ha         1 SC9       0.136000
     37 H22          5.9340     1.5770     1.4700 ha         1 SC9       0.138000
     38 H23          4.2330    -0.2050     1.4230 ha         1 SC9       0.136000
@<TRIPOS>BOND
     1     1     2 1   
     2     1     5 2   
     3     1    25 1   
     4     2     3 1   
     5     2     6 1   
     6     3     4 2   
     7     3     9 1   
     8     4     5 1   
     9     5    26 1   
    10     6     7 2   
    11     6    27 1   
    12     7     8 1   
    13     7    18 1   
    14     8     9 2   
    15     9    10 1   
    16    10    11 1   
    17    10    28 1   
    18    11    12 1   
    19    11    29 1   
    20    11    30 1   
    21    12    13 ar  
    22    12    17 ar  
    23    13    14 ar  
    24    13    31 1   
    25    14    15 ar  
    26    14    32 1   
    27    15    16 ar  
    28    15    33 1   
    29    16    17 ar  
    30    17    34 1   
    31    18    19 ar  
    32    18    23 ar  
    33    19    20 ar  
    34    19    24 1   
    35    20    21 ar  
    36    20    35 1   
    37    21    22 ar  
    38    21    36 1   
    39    22    23 ar  
    40    22    37 1   
    41    23    38 1   
@<TRIPOS>SUBSTRUCTURE
     1 SC9         1 TEMP              0 ****  ****    0 ROOT
