@<TRIPOS>MOLECULE
SC9
   38    41     1     0     0
SMALL
No Charge or Current Charge


@<TRIPOS>ATOM
      1 C01          1.4510    -3.8920     0.0930 cc         1 SC9      -0.265100
      2 N02          1.3070    -2.5410     0.0140 na         1 SC9       0.168100
      3 C03          0.0290    -2.1660     0.0090 cc         1 SC9      -0.178000
      4 N04         -0.7460    -3.2420     0.0710 nd         1 SC9      -0.279600
      5 C05          0.1360    -4.3210     0.1220 cd         1 SC9      -0.049400
      6 C06          2.3600    -1.6460    -0.0150 cc         1 SC9      -0.219000
      7 C07          2.0250    -0.2810    -0.1080 cd         1 SC9       0.429500
      8 N08          0.6870     0.1620    -0.1010 nd         1 SC9      -0.769000
      9 C09         -0.2210    -0.7810    -0.0510 cc         1 SC9       0.680900
     10 N10         -1.5240    -0.4010    -0.0530 nu         1 SC9      -0.915100
     11 C11         -2.0470     0.9620     0.0510 c3         1 SC9       0.281100
     12 C12         -3.5620     0.9240     0.0790 ca         1 SC9      -0.170300
     13 C13         -4.2570     0.5550     1.2460 ca         1 SC9      -0.059000
     14 C14         -5.6600     0.5460     1.2070 ca         1 SC9      -0.168000
     15 C15         -6.3160     0.9040     0.0170 ca         1 SC9       0.344900
     16 N16         -5.6550     1.2620    -1.1080 nb         1 SC9      -0.666000
     17 C17         -4.3010     1.2690    -1.0690 ca         1 SC9       0.358900
     18 C18          3.0970     0.7640    -0.1120 ca         1 SC9      -0.178500
     19 C19          2.8610     2.1240    -0.4760 ca         1 SC9       0.209000
     20 C20          3.8950     3.0760    -0.4310 ca         1 SC9      -0.161000
     21 C21          5.1820     2.7150    -0.0160 ca         1 SC9      -0.074000
     22 C22          5.4360     1.3900     0.3580 ca         1 SC9      -0.132000
     23 C23          4.4110     0.4300     0.3150 ca         1 SC9      -0.073000
     24 F24          1.6630     2.5550    -0.9330 f          1 SC9      -0.165000
     25 H01          2.4030    -4.4120     0.1190 h4         1 SC9       0.234000
     26 H05         -0.2280    -5.3460     0.1810 h4         1 SC9       0.229000
     27 H06          3.3530    -2.0670    -0.0040 h4         1 SC9       0.155000
     28 HN10        -2.1640    -1.1830     0.0600 hn         1 SC9       0.520000
     29 H111        -1.6780     1.4440     0.9680 h1         1 SC9       0.064200
     30 H112        -1.7040     1.5670    -0.8010 h1         1 SC9       0.064200
     31 H13         -3.7240     0.2830     2.1550 ha         1 SC9       0.121000
     32 H14         -6.2380     0.2670     2.0830 ha         1 SC9       0.126000
     33 H15         -7.4050     0.9050    -0.0370 h4         1 SC9       0.020100
     34 H17         -3.7950     1.5620    -1.9890 h4         1 SC9       0.027100
     35 H20          3.6910     4.1010    -0.7280 ha         1 SC9       0.133000
     36 H21          5.9770     3.4570     0.0180 ha         1 SC9       0.118000
     37 H22          6.4310     1.1050     0.6910 ha         1 SC9       0.120000
     38 H23          4.6610    -0.5730     0.6460 ha         1 SC9       0.118000
@<TRIPOS>BOND
     1     1     2 1   
     2     1     5 2   
     3     1    25 1   
     4     2     3 1   
     5     2     6 1   
     6     3     4 2   
     7     3     9 1   
     8     4     5 1   
     9     5    26 1   
    10     6     7 2   
    11     6    27 1   
    12     7     8 1   
    13     7    18 1   
    14     8     9 2   
    15     9    10 1   
    16    10    11 1   
    17    10    28 1   
    18    11    12 1   
    19    11    29 1   
    20    11    30 1   
    21    12    13 ar  
    22    12    17 ar  
    23    13    14 ar  
    24    13    31 1   
    25    14    15 ar  
    26    14    32 1   
    27    15    16 ar  
    28    15    33 1   
    29    16    17 ar  
    30    17    34 1   
    31    18    19 ar  
    32    18    23 ar  
    33    19    20 ar  
    34    19    24 1   
    35    20    21 ar  
    36    20    35 1   
    37    21    22 ar  
    38    21    36 1   
    39    22    23 ar  
    40    22    37 1   
    41    23    38 1   
@<TRIPOS>SUBSTRUCTURE
     1 SC9         1 TEMP              0 ****  ****    0 ROOT
