@<TRIPOS>MOLECULE
SCB
   51    54     1     0     0
SMALL
bcc


@<TRIPOS>ATOM
      1 C1          -5.8980    -0.6430    -2.9710 c3         1 SCB       0.123700
      2 O1          -5.3860    -0.7170    -1.6650 os         1 SCB      -0.385600
      3 C2          -6.0830     0.0980    -0.7650 c3         1 SCB       0.114400
      4 C3          -5.4290     0.0070     0.5980 c3         1 SCB       0.113000
      5 N1          -4.0380     0.4320     0.5700 n          1 SCB      -0.395300
      6 C4          -3.6970     1.7620     0.5900 c          1 SCB       0.728700
      7 O2          -4.5020     2.6660     0.6650 o          1 SCB      -0.614500
      8 C5          -2.2350     1.9190     0.5070 cc         1 SCB      -0.131600
      9 C6          -1.6410     3.1260     0.5000 cf         1 SCB      -0.103800
     10 C7          -0.2470     3.3720     0.3730 cd         1 SCB       0.232500
     11 C8           0.4910     4.5240     0.3820 cc         1 SCB      -0.216300
     12 C9           1.8340     4.1420     0.1790 cc         1 SCB      -0.305300
     13 C10          1.8380     2.7780     0.0540 cd         1 SCB       0.379200
     14 O3           0.5800     2.3180     0.1780 os         1 SCB      -0.305800
     15 C11          2.8880     1.8120    -0.2030 ca         1 SCB      -0.176500
     16 C12          4.2070     2.2510    -0.3440 ca         1 SCB      -0.126000
     17 C13          5.2180     1.3490    -0.6150 ca         1 SCB      -0.150000
     18 C14          4.9110     0.0020    -0.7520 ca         1 SCB       0.063400
     19 CL1          6.1960    -1.1120    -1.1040 cl         1 SCB      -0.123400
     20 C15          3.6140    -0.4740    -0.6160 ca         1 SCB      -0.110600
     21 C16          2.6120     0.4480    -0.3360 ca         1 SCB      -0.071000
     22 C17          3.2880    -1.9560    -0.7770 c          1 SCB       0.936200
     23 O4           3.0300    -2.3160    -1.9370 o          1 SCB      -0.806300
     24 O5           3.3170    -2.6280     0.2630 o          1 SCB      -0.806300
     25 S1          -1.4430     0.3650     0.4050 ss         1 SCB      -0.119800
     26 C18         -3.0030    -0.4720     0.5090 cc         1 SCB       0.513800
     27 N2          -3.1630    -1.7210     0.5760 nf         1 SCB      -0.602100
     28 C19         -2.0450    -2.5610     0.5430 ca         1 SCB       0.119400
     29 C20         -1.8160    -3.4130     1.6230 ca         1 SCB      -0.141000
     30 C21         -0.6950    -4.2290     1.6420 ca         1 SCB      -0.112500
     31 C22          0.2070    -4.2100     0.5860 ca         1 SCB      -0.100000
     32 C23         -0.0380    -3.3930    -0.5080 ca         1 SCB      -0.112500
     33 C24         -1.1630    -2.5810    -0.5390 ca         1 SCB      -0.141000
     34 H11         -5.2980    -1.2950    -3.6040 h1         1 SCB       0.025700
     35 H12A        -6.9420    -0.9740    -3.0250 h1         1 SCB       0.025700
     36 H13A        -5.8470     0.3750    -3.3750 h1         1 SCB       0.025700
     37 H21A        -6.0990     1.1420    -1.1070 h1         1 SCB       0.026200
     38 H22A        -7.1310    -0.2180    -0.6580 h1         1 SCB       0.026200
     39 H31         -5.9710     0.6370     1.3020 h1         1 SCB       0.073700
     40 H32         -5.4560    -1.0130     0.9730 h1         1 SCB       0.073700
     41 H6          -2.2720     4.0030     0.5890 ha         1 SCB       0.152000
     42 H8           0.1080     5.5230     0.5160 ha         1 SCB       0.150000
     43 H9           2.6880     4.7960     0.1260 ha         1 SCB       0.156000
     44 H12          4.4540     3.3000    -0.2450 ha         1 SCB       0.114000
     45 H13          6.2380     1.6920    -0.7230 ha         1 SCB       0.126000
     46 H16          1.5970     0.0860    -0.2290 ha         1 SCB       0.150000
     47 H20         -2.5110    -3.4140     2.4530 ha         1 SCB       0.131000
     48 H21         -0.5210    -4.8740     2.4940 ha         1 SCB       0.148500
     49 H22          1.0950    -4.8260     0.6130 ha         1 SCB       0.151000
     50 H23          0.6640    -3.3670    -1.3310 ha         1 SCB       0.148500
     51 H24         -1.3560    -1.9620    -1.4070 ha         1 SCB       0.131000
@<TRIPOS>BOND
     1     1     2 1   
     2     1    34 1   
     3     1    35 1   
     4     1    36 1   
     5     2     3 1   
     6     3     4 1   
     7     3    37 1   
     8     3    38 1   
     9     4     5 1   
    10     4    39 1   
    11     4    40 1   
    12     5     6 1   
    13     5    26 1   
    14     6     7 2   
    15     6     8 1   
    16     8     9 2   
    17     8    25 1   
    18     9    10 1   
    19     9    41 1   
    20    10    11 2   
    21    10    14 1   
    22    11    12 1   
    23    11    42 1   
    24    12    13 2   
    25    12    43 1   
    26    13    14 1   
    27    13    15 1   
    28    15    16 ar  
    29    15    21 ar  
    30    16    17 ar  
    31    16    44 1   
    32    17    18 ar  
    33    17    45 1   
    34    18    19 1   
    35    18    20 ar  
    36    20    21 ar  
    37    20    22 1   
    38    21    46 1   
    39    22    23 1   
    40    22    24 1   
    41    25    26 1   
    42    26    27 2   
    43    27    28 1   
    44    28    29 ar  
    45    28    33 ar  
    46    29    30 ar  
    47    29    47 1   
    48    30    31 ar  
    49    30    48 1   
    50    31    32 ar  
    51    31    49 1   
    52    32    33 ar  
    53    32    50 1   
    54    33    51 1   
@<TRIPOS>SUBSTRUCTURE
     1 SCB         1 TEMP              0 ****  ****    0 ROOT
