@<TRIPOS>MOLECULE
SCB
   51    54     1     0     0
SMALL
No Charge or Current Charge


@<TRIPOS>ATOM
      1 C1          -6.3540    -0.9240    -2.8240 c3         1 SCB       0.146900
      2 O1          -5.7400    -0.8090    -1.5300 os         1 SCB      -0.432000
      3 C2          -6.3450     0.1700    -0.6660 c3         1 SCB       0.137600
      4 C3          -5.5810     0.2030     0.6780 c3         1 SCB       0.113000
      5 N1          -4.1420     0.5330     0.5420 n          1 SCB      -0.328300
      6 C4          -3.7160     1.8540     0.5310 c          1 SCB       0.586200
      7 O2          -4.4600     2.8240     0.6130 o          1 SCB      -0.539000
      8 C5          -2.2470     1.8860     0.4010 cc         1 SCB      -0.131600
      9 C6          -1.5280     3.0560     0.3600 cf         1 SCB      -0.153800
     10 C7          -0.0870     3.2960     0.2420 cd         1 SCB       0.122800
     11 C8           0.5640     4.5000     0.2380 cc         1 SCB      -0.133000
     12 C9           1.9360     4.2150     0.1050 cc         1 SCB      -0.222000
     13 C10          2.0330     2.8520     0.0340 cd         1 SCB       0.269500
     14 O3           0.7990     2.2500     0.1160 os         1 SCB      -0.217000
     15 C11          3.2230     1.9890    -0.1040 ca         1 SCB      -0.176500
     16 C12          4.5120     2.5550    -0.1750 ca         1 SCB      -0.108000
     17 C13          5.6440     1.7340    -0.3080 ca         1 SCB      -0.132000
     18 C14          5.5070     0.3380    -0.3690 ca         1 SCB       0.155000
     19 Cl1          6.9600    -0.6410    -0.5720 cl         1 SCB      -0.215000
     20 C15          4.2280    -0.2460    -0.2940 ca         1 SCB      -0.110600
     21 C16          3.0930     0.5820    -0.1670 ca         1 SCB      -0.053000
     22 C17          4.0550    -1.7340    -0.3560 c          1 SCB       0.725600
     23 O4           3.4170    -2.1960    -1.2910 o          1 SCB      -0.701000
     24 O5           4.4930    -2.4080     0.5660 o          1 SCB      -0.701000
     25 S1          -1.5310     0.2800     0.3140 ss         1 SCB      -0.119800
     26 C18         -3.1450    -0.4180     0.4680 cc         1 SCB       0.513800
     27 N2          -3.2710    -1.7080     0.5390 nf         1 SCB      -0.602100
     28 C19         -2.2760    -2.6970     0.3870 ca         1 SCB       0.119400
     29 C20         -1.5680    -3.1620     1.5090 ca         1 SCB      -0.123000
     30 C21         -0.5690    -4.1410     1.3560 ca         1 SCB      -0.094500
     31 C22         -0.2790    -4.6550     0.0790 ca         1 SCB      -0.082000
     32 C23         -0.9900    -4.1930    -1.0430 ca         1 SCB      -0.094500
     33 C24         -1.9890    -3.2150    -0.8880 ca         1 SCB      -0.123000
     34 H11         -5.8400    -1.6870    -3.4220 h1         1 SCB       0.025700
     35 H12A        -7.4090    -1.2150    -2.7300 h1         1 SCB       0.025700
     36 H13A        -6.3020     0.0280    -3.3660 h1         1 SCB       0.025700
     37 H21A        -6.3070     1.1660    -1.1270 h1         1 SCB       0.026200
     38 H22A        -7.3970    -0.0800    -0.4760 h1         1 SCB       0.026200
     39 H31         -6.0600     0.9380     1.3380 h1         1 SCB       0.073700
     40 H32         -5.6850    -0.7740     1.1650 h1         1 SCB       0.073700
     41 H6          -2.1280     3.9650     0.4330 ha         1 SCB       0.202000
     42 H8           0.1210     5.4880     0.3220 ha         1 SCB       0.132000
     43 H9           2.7390     4.9430     0.0690 ha         1 SCB       0.138000
     44 H12          4.6470     3.6330    -0.1300 ha         1 SCB       0.096000
     45 H13          6.6320     2.1820    -0.3700 ha         1 SCB       0.108000
     46 H16          2.1100     0.1180    -0.1160 ha         1 SCB       0.132000
     47 H20         -1.7890    -2.7630     2.4960 ha         1 SCB       0.113000
     48 H21         -0.0190    -4.4980     2.2240 ha         1 SCB       0.130500
     49 H22          0.4940    -5.4110    -0.0400 ha         1 SCB       0.133000
     50 H23         -0.7670    -4.5910    -2.0310 ha         1 SCB       0.130500
     51 H24         -2.5370    -2.8560    -1.7550 ha         1 SCB       0.113000
@<TRIPOS>BOND
     1     1     2 1   
     2     1    34 1   
     3     1    35 1   
     4     1    36 1   
     5     2     3 1   
     6     3     4 1   
     7     3    37 1   
     8     3    38 1   
     9     4     5 1   
    10     4    39 1   
    11     4    40 1   
    12     5     6 1   
    13     5    26 1   
    14     6     7 2   
    15     6     8 1   
    16     8     9 2   
    17     8    25 1   
    18     9    10 1   
    19     9    41 1   
    20    10    11 2   
    21    10    14 1   
    22    11    12 1   
    23    11    42 1   
    24    12    13 2   
    25    12    43 1   
    26    13    14 1   
    27    13    15 1   
    28    15    16 ar  
    29    15    21 ar  
    30    16    17 ar  
    31    16    44 1   
    32    17    18 ar  
    33    17    45 1   
    34    18    19 1   
    35    18    20 ar  
    36    20    21 ar  
    37    20    22 1   
    38    21    46 1   
    39    22    23 1   
    40    22    24 1   
    41    25    26 1   
    42    26    27 2   
    43    27    28 1   
    44    28    29 ar  
    45    28    33 ar  
    46    29    30 ar  
    47    29    47 1   
    48    30    31 ar  
    49    30    48 1   
    50    31    32 ar  
    51    31    49 1   
    52    32    33 ar  
    53    32    50 1   
    54    33    51 1   
@<TRIPOS>SUBSTRUCTURE
     1 SCB         1 TEMP              0 ****  ****    0 ROOT
