@<TRIPOS>MOLECULE
SCE
   31    33     1     0     0
SMALL
No Charge or Current Charge


@<TRIPOS>ATOM
      1 C01          3.6110     0.5450     0.6370 cc         1 SCE      -0.158300
      2 N02          2.6610    -0.2630     0.0790 na         1 SCE       0.167100
      3 C03          1.6430     0.4340    -0.4370 cc         1 SCE      -0.179000
      4 N04          1.8600     1.7300    -0.2550 nd         1 SCE      -0.282600
      5 C05          3.0840     1.8040     0.4120 cd         1 SCE      -0.048400
      6 C06          2.7150    -1.6490     0.0500 cc         1 SCE      -0.231000
      7 C07          1.6340    -2.2890    -0.5660 cd         1 SCE       0.355900
      8 N08          0.5360    -1.6140    -1.1320 nd         1 SCE      -0.766000
      9 C09          0.5960    -0.3050    -1.0340 cc         1 SCE       0.674900
     10 N10         -0.4250     0.4230    -1.5550 nu         1 SCE      -0.925100
     11 C11         -1.7880    -0.0510    -1.8410 c3         1 SCE       0.280100
     12 C12         -2.6620     0.0710    -0.5970 ca         1 SCE      -0.055300
     13 C13         -2.7220    -0.9630     0.3560 ca         1 SCE      -0.155500
     14 C14         -3.5330    -0.8080     1.4930 ca         1 SCE       0.334900
     15 N15         -4.2730     0.3010     1.7250 nb         1 SCE      -0.665000
     16 C16         -4.2160     1.2970     0.8100 ca         1 SCE       0.334900
     17 C17         -3.4300     1.2250    -0.3530 ca         1 SCE      -0.155500
     18 C18          4.8900     0.1230     1.3120 c3         1 SCE      -0.018900
     19 H05          3.5160     2.7610     0.6940 h4         1 SCE       0.227000
     20 H06          3.5650    -2.1480     0.4910 h4         1 SCE       0.153000
     21 H07          1.5970    -3.3690    -0.6360 h4         1 SCE       0.030100
     22 HN10        -0.3080     1.4120    -1.3470 hn         1 SCE       0.524000
     23 H111        -2.2300     0.5470    -2.6510 h1         1 SCE       0.065200
     24 H112        -1.7850    -1.0950    -2.1840 h1         1 SCE       0.065200
     25 H13         -2.1460    -1.8750     0.2240 ha         1 SCE       0.123000
     26 H14         -3.5920    -1.5960     2.2430 h4         1 SCE       0.017100
     27 H16         -4.8180     2.1810     1.0180 h4         1 SCE       0.017100
     28 H17         -3.4230     2.0580    -1.0500 ha         1 SCE       0.123000
     29 H181         5.5300    -0.4410     0.6230 hc         1 SCE       0.049700
     30 H182         5.4570     0.9950     1.6590 hc         1 SCE       0.049700
     31 H183         4.6840    -0.5110     2.1830 hc         1 SCE       0.049700
@<TRIPOS>BOND
     1     1     2 1   
     2     1     5 2   
     3     1    18 1   
     4     2     3 1   
     5     2     6 1   
     6     3     4 2   
     7     3     9 1   
     8     4     5 1   
     9     5    19 1   
    10     6     7 2   
    11     6    20 1   
    12     7     8 1   
    13     7    21 1   
    14     8     9 2   
    15     9    10 1   
    16    10    11 1   
    17    10    22 1   
    18    11    12 1   
    19    11    23 1   
    20    11    24 1   
    21    12    13 ar  
    22    12    17 ar  
    23    13    14 ar  
    24    13    25 1   
    25    14    15 ar  
    26    14    26 1   
    27    15    16 ar  
    28    16    17 ar  
    29    16    27 1   
    30    17    28 1   
    31    18    29 1   
    32    18    30 1   
    33    18    31 1   
@<TRIPOS>SUBSTRUCTURE
     1 SCE         1 TEMP              0 ****  ****    0 ROOT
