@<TRIPOS>MOLECULE
SCE
   31    33     1     0     0
SMALL
bcc


@<TRIPOS>ATOM
      1 C01          3.7820     0.7910     0.2990 cc         1 SCE      -0.158300
      2 N02          2.7160    -0.0580     0.2290 na         1 SCE       0.065700
      3 C03          1.7530     0.5590    -0.5210 cc         1 SCE      -0.193600
      4 N04          2.1420     1.7470    -0.9310 nd         1 SCE      -0.282600
      5 C05          3.3910     1.8930    -0.4270 cd         1 SCE       0.001600
      6 C06          2.5100    -1.3150     0.7570 cc         1 SCE      -0.263600
      7 C07          1.3190    -1.8990     0.4930 cd         1 SCE       0.421200
      8 N08          0.3250    -1.3350    -0.2450 nd         1 SCE      -0.766000
      9 C09          0.5260    -0.1430    -0.7440 cc         1 SCE       0.740200
     10 N10         -0.4180     0.4620    -1.4880 nu         1 SCE      -0.869900
     11 C11         -1.6890    -0.1430    -1.7610 c3         1 SCE       0.280100
     12 C12         -2.6350    -0.1770    -0.5860 ca         1 SCE      -0.055300
     13 C13         -3.6980    -1.0730    -0.5750 ca         1 SCE      -0.238800
     14 C14         -4.5820    -1.0600     0.4920 ca         1 SCE       0.400200
     15 N15         -4.4730    -0.2340     1.5270 nb         1 SCE      -0.665000
     16 C16         -3.4550     0.6190     1.5140 ca         1 SCE       0.400200
     17 C17         -2.5190     0.6880     0.4930 ca         1 SCE      -0.238800
     18 C18          5.0290     0.4700     1.0330 c3         1 SCE      -0.018900
     19 H05          3.9760     2.7850    -0.6020 h4         1 SCE       0.177000
     20 H06          3.2960    -1.7590     1.3450 h4         1 SCE       0.171000
     21 H07          1.1190    -2.8850     0.8890 h4         1 SCE       0.030100
     22 HN10        -0.2280     1.3880    -1.8330 hn         1 SCE       0.468800
     23 H111        -2.1540     0.4280    -2.5660 h1         1 SCE       0.065200
     24 H112        -1.5520    -1.1590    -2.1390 h1         1 SCE       0.065200
     25 H13         -3.8410    -1.7800    -1.3830 ha         1 SCE       0.141000
     26 H14         -5.4150    -1.7540     0.5110 h4         1 SCE       0.017100
     27 H16         -3.3730     1.2880     2.3640 h4         1 SCE       0.017100
     28 H17         -1.7160     1.4100     0.5500 ha         1 SCE       0.141000
     29 H181         5.5090    -0.4320     0.6480 hc         1 SCE       0.049700
     30 H182         5.7370     1.2910     0.9310 hc         1 SCE       0.049700
     31 H183         4.8480     0.3170     2.0980 hc         1 SCE       0.049700
@<TRIPOS>BOND
     1     1     2 1   
     2     1     5 2   
     3     1    18 1   
     4     2     3 1   
     5     2     6 1   
     6     3     4 2   
     7     3     9 1   
     8     4     5 1   
     9     5    19 1   
    10     6     7 2   
    11     6    20 1   
    12     7     8 1   
    13     7    21 1   
    14     8     9 2   
    15     9    10 1   
    16    10    11 1   
    17    10    22 1   
    18    11    12 1   
    19    11    23 1   
    20    11    24 1   
    21    12    13 ar  
    22    12    17 ar  
    23    13    14 ar  
    24    13    25 1   
    25    14    15 ar  
    26    14    26 1   
    27    15    16 ar  
    28    16    17 ar  
    29    16    27 1   
    30    17    28 1   
    31    18    29 1   
    32    18    30 1   
    33    18    31 1   
@<TRIPOS>SUBSTRUCTURE
     1 SCE         1 TEMP              0 ****  ****    0 ROOT
