@<TRIPOS>MOLECULE
SCF
   38    41     1     0     0
SMALL
No Charge or Current Charge


@<TRIPOS>ATOM
      1 C01          1.3880     3.5550    -0.2480 cc         1 SCF      -0.398600
      2 C02          1.3020     2.2150    -0.1290 cd         1 SCF       0.424500
      3 N03         -0.0390     1.9520    -0.0840 na         1 SCF       0.066900
      4 N04         -0.8780     3.0640    -0.1660 nd         1 SCF      -0.621100
      5 C05          0.0470     4.0190    -0.2640 cc         1 SCF       0.402500
      6 N06          2.3940     1.3890    -0.0850 nd         1 SCF      -0.674000
      7 C07          1.9920     0.1200     0.0420 cc         1 SCF       0.489500
      8 C08          0.5920    -0.2770     0.0840 cc         1 SCF      -0.339000
      9 C09         -0.4500     0.6270     0.0290 cd         1 SCF       0.405000
     10 N10         -1.7800     0.2990     0.0830 nu         1 SCF      -0.963200
     11 C11          3.0420    -0.9300     0.0300 ca         1 SCF      -0.193500
     12 C12         -2.3720    -1.0420     0.1320 c3         1 SCF       0.281100
     13 C13         -3.8890    -0.9340     0.0830 ca         1 SCF      -0.083300
     14 C14         -4.5820    -0.9330    -1.1430 ca         1 SCF      -0.145000
     15 C15         -5.9840    -0.8270    -1.1440 ca         1 SCF       0.336900
     16 N16         -6.7170    -0.7210    -0.0100 nb         1 SCF      -0.652000
     17 C17         -6.0520    -0.7180     1.1700 ca         1 SCF       0.336900
     18 C18         -4.6520    -0.8210     1.2600 ca         1 SCF      -0.145000
     19 C19          2.7480    -2.2350    -0.4520 ca         1 SCF      -0.068000
     20 C20          3.7350    -3.2330    -0.5150 ca         1 SCF      -0.135000
     21 C21          5.0460    -2.9590    -0.1100 ca         1 SCF      -0.071000
     22 C22          5.3690    -1.6770     0.3530 ca         1 SCF      -0.163000
     23 C23          4.3890    -0.6710     0.4160 ca         1 SCF       0.215000
     24 F24          4.7730     0.5220     0.9250 f          1 SCF      -0.160000
     25 H01          2.2800     4.1630    -0.3180 ha         1 SCF       0.229000
     26 H05         -0.2800     5.0480    -0.3480 h4         1 SCF       0.044800
     27 H08          0.3530    -1.3220     0.2050 ha         1 SCF       0.137000
     28 HN10        -2.4090     1.1040     0.0130 hn         1 SCF       0.535000
     29 H121        -2.0210    -1.6450    -0.7170 h1         1 SCF       0.056700
     30 H122        -2.0710    -1.5580     1.0540 h1         1 SCF       0.056700
     31 H14         -4.0480    -1.0120    -2.0860 ha         1 SCF       0.129000
     32 H15         -6.5390    -0.8250    -2.0810 h4         1 SCF       0.025100
     33 H17         -6.6590    -0.6300     2.0700 h4         1 SCF       0.025100
     34 H18         -4.1740    -0.8100     2.2360 ha         1 SCF       0.129000
     35 H19          1.7600    -2.4920    -0.8240 ha         1 SCF       0.118000
     36 H20          3.4810    -4.2210    -0.8910 ha         1 SCF       0.119000
     37 H21          5.8090    -3.7340    -0.1590 ha         1 SCF       0.118000
     38 H22          6.3840    -1.4570     0.6720 ha         1 SCF       0.134000
@<TRIPOS>BOND
     1     1     2 2   
     2     1     5 1   
     3     1    25 1   
     4     2     3 1   
     5     2     6 1   
     6     3     4 1   
     7     3     9 1   
     8     4     5 2   
     9     5    26 1   
    10     6     7 2   
    11     7     8 1   
    12     7    11 1   
    13     8     9 2   
    14     8    27 1   
    15     9    10 1   
    16    10    12 1   
    17    10    28 1   
    18    11    19 ar  
    19    11    23 ar  
    20    12    13 1   
    21    12    29 1   
    22    12    30 1   
    23    13    14 ar  
    24    13    18 ar  
    25    14    15 ar  
    26    14    31 1   
    27    15    16 ar  
    28    15    32 1   
    29    16    17 ar  
    30    17    18 ar  
    31    17    33 1   
    32    18    34 1   
    33    19    20 ar  
    34    19    35 1   
    35    20    21 ar  
    36    20    36 1   
    37    21    22 ar  
    38    21    37 1   
    39    22    23 ar  
    40    22    38 1   
    41    23    24 1   
@<TRIPOS>SUBSTRUCTURE
     1 SCF         1 TEMP              0 ****  ****    0 ROOT
