@<TRIPOS>MOLECULE
SCF
   38    41     1     0     0
SMALL
bcc


@<TRIPOS>ATOM
      1 C01          1.3050     3.6010    -0.3460 cc         1 SCF      -0.348600
      2 C02          1.3070     2.2170    -0.2310 cd         1 SCF       0.424500
      3 N03         -0.0270     1.8630    -0.1890 na         1 SCF       0.016200
      4 N04         -0.8560     2.9080    -0.2680 nd         1 SCF      -0.621100
      5 C05         -0.0460     3.9520    -0.3630 cc         1 SCF       0.402500
      6 N06          2.2880     1.3080    -0.1720 nd         1 SCF      -0.674000
      7 C07          1.9150     0.0500    -0.0650 cc         1 SCF       0.554800
      8 C08          0.5750    -0.3750    -0.0020 cc         1 SCF      -0.422300
      9 C09         -0.4350     0.5690    -0.0700 cd         1 SCF       0.317300
     10 N10         -1.7450     0.3420    -0.0230 nu         1 SCF      -0.769600
     11 C11          2.9800    -0.9760    -0.0340 ca         1 SCF      -0.193500
     12 C12         -2.3030    -0.9920     0.0750 c3         1 SCF       0.281100
     13 C13         -3.8020    -0.9010     0.1130 ca         1 SCF      -0.083300
     14 C14         -4.5540    -0.9500    -1.0530 ca         1 SCF      -0.228300
     15 C15         -5.9330    -0.8260    -0.9660 ca         1 SCF       0.402200
     16 N16         -6.5810    -0.6600     0.1810 nb         1 SCF      -0.652000
     17 C17         -5.8590    -0.6120     1.2940 ca         1 SCF       0.402200
     18 C18         -4.4770    -0.7270     1.3140 ca         1 SCF      -0.228300
     19 C19          2.8690    -2.1330    -0.8060 ca         1 SCF      -0.086000
     20 C20          3.8630    -3.0980    -0.8100 ca         1 SCF      -0.153000
     21 C21          4.9940    -2.9240    -0.0240 ca         1 SCF      -0.089000
     22 C22          5.1260    -1.7900     0.7640 ca         1 SCF      -0.181000
     23 C23          4.1240    -0.8390     0.7440 ca         1 SCF       0.179900
     24 F24          4.2600     0.2330     1.5360 f          1 SCF      -0.124900
     25 H01          2.1620     4.2490    -0.4100 ha         1 SCF       0.179000
     26 H05         -0.4660     4.9430    -0.4420 h4         1 SCF       0.044800
     27 H08          0.3360    -1.4210     0.1150 ha         1 SCF       0.155000
     28 HN10        -2.3620     1.1370    -0.0960 hn         1 SCF       0.479800
     29 H121        -1.9850    -1.5960    -0.7790 h1         1 SCF       0.056700
     30 H122        -1.9360    -1.4830     0.9790 h1         1 SCF       0.056700
     31 H14         -4.0810    -1.0890    -2.0170 ha         1 SCF       0.147000
     32 H15         -6.5380    -0.8660    -1.8640 h4         1 SCF       0.025100
     33 H17         -6.4050    -0.4780     2.2220 h4         1 SCF       0.025100
     34 H18         -3.9420    -0.6830     2.2540 ha         1 SCF       0.147000
     35 H19          1.9920    -2.2650    -1.4280 ha         1 SCF       0.136000
     36 H20          3.7560    -3.9800    -1.4270 ha         1 SCF       0.137000
     37 H21          5.7760    -3.6710    -0.0170 ha         1 SCF       0.136000
     38 H22          5.9940    -1.6440     1.3940 ha         1 SCF       0.152000
@<TRIPOS>BOND
     1     1     2 2   
     2     1     5 1   
     3     1    25 1   
     4     2     3 1   
     5     2     6 1   
     6     3     4 1   
     7     3     9 1   
     8     4     5 2   
     9     5    26 1   
    10     6     7 2   
    11     7     8 1   
    12     7    11 1   
    13     8     9 2   
    14     8    27 1   
    15     9    10 1   
    16    10    12 1   
    17    10    28 1   
    18    11    19 ar  
    19    11    23 ar  
    20    12    13 1   
    21    12    29 1   
    22    12    30 1   
    23    13    14 ar  
    24    13    18 ar  
    25    14    15 ar  
    26    14    31 1   
    27    15    16 ar  
    28    15    32 1   
    29    16    17 ar  
    30    17    18 ar  
    31    17    33 1   
    32    18    34 1   
    33    19    20 ar  
    34    19    35 1   
    35    20    21 ar  
    36    20    36 1   
    37    21    22 ar  
    38    21    37 1   
    39    22    23 ar  
    40    22    38 1   
    41    23    24 1   
@<TRIPOS>SUBSTRUCTURE
     1 SCF         1 TEMP              0 ****  ****    0 ROOT
