@<TRIPOS>MOLECULE
SCG
   51    52     1     0     0
SMALL
No Charge or Current Charge


@<TRIPOS>ATOM
      1 O16         -3.8670    -1.5210     3.0330 o          1 SCG      -0.514100
      2 C10         -4.0130    -1.8480     1.8600 c          1 SCG       0.570900
      3 C9          -3.9940    -0.8460     0.7030 c3         1 SCG      -0.194400
      4 C1          -2.5520    -0.3480     0.3220 c6         1 SCG       0.033500
      5 C6          -1.5510    -1.5510     0.1950 c6         1 SCG      -0.059500
      6 C7          -2.1470    -2.7450    -0.5590 c2         1 SCG      -0.225200
      7 C8          -2.1360    -4.0030    -0.0900 c2         1 SCG      -0.306000
      8 C5          -0.2470    -1.1010    -0.5030 c6         1 SCG       0.385300
      9 O4          -0.5720    -0.5890    -1.8100 os         1 SCG      -0.355100
     10 C3          -1.5750     0.3410    -1.9120 c2         1 SCG       0.071100
     11 C2          -2.5240     0.5400    -0.9610 ce         1 SCG      -0.296400
     12 C12         -3.4600     1.7060    -1.1370 c          1 SCG       0.614300
     13 O14         -4.1080     2.0650     0.0130 os         1 SCG      -0.438100
     14 C15         -5.0090     3.1860    -0.0340 c3         1 SCG       0.150900
     15 O13         -3.5810     2.3080    -2.1950 o          1 SCG      -0.503000
     16 O11          0.3990    -0.0680     0.2640 os         1 SCG      -0.458000
     17 C17          1.7350     0.2260    -0.1630 c6         1 SCG       0.360300
     18 O22          2.5920    -0.8810     0.1760 os         1 SCG      -0.457000
     19 C21          3.9610    -0.7230    -0.2860 c6         1 SCG       0.180300
     20 C23          4.7480    -2.0350     0.0420 c3         1 SCG       0.171600
     21 O24          4.1440    -3.2210    -0.5190 oh         1 SCG      -0.712000
     22 C20          4.6020     0.5400     0.3780 c6         1 SCG       0.141300
     23 O25          5.9410     0.7850    -0.0930 oh         1 SCG      -0.718000
     24 C19          3.7100     1.7860     0.0940 c6         1 SCG       0.138300
     25 O26          4.2320     2.9500     0.7570 oh         1 SCG      -0.663000
     26 C18          2.2510     1.5140     0.5550 c6         1 SCG       0.111300
     27 O27          1.4080     2.6640     0.3020 oh         1 SCG      -0.721000
     28 H10         -4.1830    -2.9110     1.5780 h4         1 SCG      -0.013800
     29 H91         -4.6320    -0.0170     1.0170 hc         1 SCG       0.072200
     30 H92         -4.4440    -1.3340    -0.1690 hc         1 SCG       0.072200
     31 H1          -2.2140     0.2790     1.1620 hc         1 SCG       0.085700
     32 H6          -1.2750    -1.8810     1.2060 hc         1 SCG       0.082700
     33 H7          -2.5910    -2.5230    -1.5340 ha         1 SCG       0.183000
     34 H81         -1.6950    -4.2600     0.8750 ha         1 SCG       0.167500
     35 H82         -2.5680    -4.8270    -0.6610 ha         1 SCG       0.167500
     36 H5           0.4250    -1.9680    -0.6000 h2         1 SCG       0.098700
     37 H3          -1.5130     0.9470    -2.8210 h4         1 SCG       0.235000
     38 H151        -4.4800     4.1010    -0.3310 h1         1 SCG       0.048700
     39 H152        -5.8220     3.0050    -0.7500 h1         1 SCG       0.048700
     40 H153        -5.4570     3.3570     0.9530 h1         1 SCG       0.048700
     41 H17          1.7470     0.3890    -1.2520 h2         1 SCG       0.050700
     42 H21          3.9530    -0.5950    -1.3790 h1         1 SCG       0.059700
     43 H231         5.7730    -1.9250    -0.3370 h1         1 SCG       0.038700
     44 H232         4.8150    -2.1280     1.1350 h1         1 SCG       0.038700
     45 H24          4.6760    -3.9900    -0.2070 ho         1 SCG       0.505000
     46 H20          4.6200     0.3740     1.4660 h1         1 SCG       0.057700
     47 H25          6.1270     1.7260     0.1490 ho         1 SCG       0.527000
     48 H19          3.6930     1.9580    -0.9930 h1         1 SCG       0.053700
     49 H26          3.4690     3.5730     0.8030 ho         1 SCG       0.466000
     50 H18          2.2670     1.2990     1.6350 h1         1 SCG       0.070700
     51 H27          0.4780     2.3520     0.4240 ho         1 SCG       0.523000
@<TRIPOS>BOND
     1     1     2 2   
     2     2     3 1   
     3     2    28 1   
     4     3     4 1   
     5     3    29 1   
     6     3    30 1   
     7     4     5 1   
     8     4    11 1   
     9     4    31 1   
    10     5     6 1   
    11     5     8 1   
    12     5    32 1   
    13     6     7 2   
    14     6    33 1   
    15     7    34 1   
    16     7    35 1   
    17     8     9 1   
    18     8    16 1   
    19     8    36 1   
    20     9    10 1   
    21    10    11 2   
    22    10    37 1   
    23    11    12 1   
    24    12    13 1   
    25    12    15 2   
    26    13    14 1   
    27    14    38 1   
    28    14    39 1   
    29    14    40 1   
    30    16    17 1   
    31    17    18 1   
    32    17    26 1   
    33    17    41 1   
    34    18    19 1   
    35    19    20 1   
    36    19    22 1   
    37    19    42 1   
    38    20    21 1   
    39    20    43 1   
    40    20    44 1   
    41    21    45 1   
    42    22    23 1   
    43    22    24 1   
    44    22    46 1   
    45    23    47 1   
    46    24    25 1   
    47    24    26 1   
    48    24    48 1   
    49    25    49 1   
    50    26    27 1   
    51    26    50 1   
    52    27    51 1   
@<TRIPOS>SUBSTRUCTURE
     1 SCG         1 TEMP              0 ****  ****    0 ROOT
