@<TRIPOS>MOLECULE
SCG
   51    52     1     0     0
SMALL
abcg2


@<TRIPOS>ATOM
      1 O16         -3.5810    -1.6060     3.0480 o          1 SCG      -0.514100
      2 C10         -3.7550    -1.8940     1.8890 c          1 SCG       0.570900
      3 C9          -3.8240    -0.8760     0.7850 c3         1 SCG      -0.194400
      4 C1          -2.4080    -0.4560     0.3360 c6         1 SCG       0.033500
      5 C6          -1.5880    -1.6960    -0.0870 c6         1 SCG      -0.059500
      6 C7          -2.3450    -2.6310    -0.9890 c2         1 SCG      -0.225200
      7 C8          -2.4050    -3.9430    -0.8010 c2         1 SCG      -0.306000
      8 C5          -0.3200    -1.2430    -0.7950 c6         1 SCG       0.385300
      9 O4          -0.6500    -0.5350    -1.9810 os         1 SCG      -0.355100
     10 C3          -1.5900     0.4050    -1.8500 c2         1 SCG       0.071100
     11 C2          -2.4210     0.5350    -0.8040 ce         1 SCG      -0.296400
     12 C12         -3.2530     1.7540    -0.8140 c          1 SCG       0.614300
     13 O14         -3.6300     2.1080     0.4080 os         1 SCG      -0.438100
     14 C15         -4.4250     3.2850     0.5430 c3         1 SCG       0.150900
     15 O13         -3.5320     2.3960    -1.8020 o          1 SCG      -0.503000
     16 O11          0.3870    -0.4120     0.0660 os         1 SCG      -0.458000
     17 C17          1.6880    -0.0800    -0.3020 c6         1 SCG       0.360300
     18 O22          2.5490    -0.9340     0.3910 os         1 SCG      -0.457000
     19 C21          3.9110    -0.7250     0.0670 c6         1 SCG       0.180300
     20 C23          4.7250    -1.7720     0.7960 c3         1 SCG       0.171600
     21 O24          4.3370    -3.0470     0.3450 oh         1 SCG      -0.712000
     22 C20          4.3180     0.6950     0.4660 c6         1 SCG       0.141300
     23 O25          5.6550     0.8910     0.0820 oh         1 SCG      -0.718000
     24 C19          3.3950     1.7060    -0.2080 c6         1 SCG       0.138300
     25 O26          3.7570     2.9840     0.2560 oh         1 SCG      -0.663000
     26 C18          1.9420     1.3720     0.0940 c6         1 SCG       0.111300
     27 O27          1.1260     2.2480    -0.6410 oh         1 SCG      -0.721000
     28 H10         -3.8630    -2.9490     1.5840 h4         1 SCG      -0.013800
     29 H91         -4.3620    -0.0080     1.1630 hc         1 SCG       0.072200
     30 H92         -4.3860    -1.2850    -0.0570 hc         1 SCG       0.072200
     31 H1          -1.9150    -0.0040     1.2030 hc         1 SCG       0.085700
     32 H6          -1.2770    -2.2460     0.8060 hc         1 SCG       0.082700
     33 H7          -2.8550    -2.1990    -1.8450 ha         1 SCG       0.183000
     34 H81         -1.9160    -4.4230     0.0390 ha         1 SCG       0.167500
     35 H82         -2.9440    -4.5870    -1.4830 ha         1 SCG       0.167500
     36 H5           0.2800    -2.0930    -1.1310 h2         1 SCG       0.098700
     37 H3          -1.6060     1.0860    -2.6930 h4         1 SCG       0.235000
     38 H151        -3.8830     4.1700     0.2090 h1         1 SCG       0.048700
     39 H152        -5.3580     3.2040    -0.0130 h1         1 SCG       0.048700
     40 H153        -4.6430     3.3750     1.6030 h1         1 SCG       0.048700
     41 H17          1.8350    -0.1900    -1.3890 h2         1 SCG       0.050700
     42 H21          4.0610    -0.8420    -1.0190 h1         1 SCG       0.059700
     43 H231         5.7850    -1.5800     0.6020 h1         1 SCG       0.038700
     44 H232         4.5690    -1.6550     1.8780 h1         1 SCG       0.038700
     45 H24          4.9650    -3.6870     0.6900 ho         1 SCG       0.505000
     46 H20          4.2010     0.7920     1.5580 h1         1 SCG       0.057700
     47 H25          5.9080     1.7870     0.3260 ho         1 SCG       0.527000
     48 H19          3.5470     1.6290    -1.2960 h1         1 SCG       0.053700
     49 H26          3.3520     3.6440    -0.3140 ho         1 SCG       0.466000
     50 H18          1.7700     1.4690     1.1770 h1         1 SCG       0.070700
     51 H27          0.2290     2.1960    -0.2960 ho         1 SCG       0.523000
@<TRIPOS>BOND
     1     1     2 2   
     2     2     3 1   
     3     2    28 1   
     4     3     4 1   
     5     3    29 1   
     6     3    30 1   
     7     4     5 1   
     8     4    11 1   
     9     4    31 1   
    10     5     6 1   
    11     5     8 1   
    12     5    32 1   
    13     6     7 2   
    14     6    33 1   
    15     7    34 1   
    16     7    35 1   
    17     8     9 1   
    18     8    16 1   
    19     8    36 1   
    20     9    10 1   
    21    10    11 2   
    22    10    37 1   
    23    11    12 1   
    24    12    13 1   
    25    12    15 2   
    26    13    14 1   
    27    14    38 1   
    28    14    39 1   
    29    14    40 1   
    30    16    17 1   
    31    17    18 1   
    32    17    26 1   
    33    17    41 1   
    34    18    19 1   
    35    19    20 1   
    36    19    22 1   
    37    19    42 1   
    38    20    21 1   
    39    20    43 1   
    40    20    44 1   
    41    21    45 1   
    42    22    23 1   
    43    22    24 1   
    44    22    46 1   
    45    23    47 1   
    46    24    25 1   
    47    24    26 1   
    48    24    48 1   
    49    25    49 1   
    50    26    27 1   
    51    26    50 1   
    52    27    51 1   
@<TRIPOS>SUBSTRUCTURE
     1 SCG         1 TEMP              0 ****  ****    0 ROOT
