@<TRIPOS>MOLECULE
SCH
   17    16     1     0     0
SMALL
No Charge or Current Charge


@<TRIPOS>ATOM
      1 N           13.4460    20.5010    16.5690 n8         1 SCH      -0.896800
      2 CA          14.2590    21.4960    15.7610 c3         1 SCH       0.014500
      3 CB          13.3480    22.3050    14.8050 c3         1 SCH       0.044700
      4 SG          12.1890    23.4190    15.7190 ss         1 SCH      -0.088100
      5 SD          11.1230    24.3850    14.1960 ss         1 SCH      -0.346100
      6 CE           9.6830    23.2680    13.9010 c3         1 SCH       0.003000
      7 C           15.2320    22.4740    16.5470 c          1 SCH       0.900600
      8 O           15.0870    22.6120    17.7590 o          1 SCH      -0.816300
      9 OXT         16.1730    22.9720    15.9390 o          1 SCH      -0.816300
     10 H           14.0820    19.9550    17.1620 hn         1 SCH       0.334800
     11 H2          12.8760    21.0220    17.2430 hn         1 SCH       0.334800
     12 HA          14.9190    20.8930    15.1230 h1         1 SCH       0.047700
     13 HB2         13.9670    22.9180    14.1390 h1         1 SCH       0.059700
     14 HB3         12.7590    21.6180    14.1840 h1         1 SCH       0.059700
     15 HE1          9.0480    23.6840    13.1090 h1         1 SCH       0.055033
     16 HE2         10.0400    22.2760    13.5950 h1         1 SCH       0.055033
     17 HE3          9.0940    23.1710    14.8220 h1         1 SCH       0.055033
@<TRIPOS>BOND
     1     1     2 1   
     2     1    10 1   
     3     1    11 1   
     4     2     3 1   
     5     2     7 1   
     6     2    12 1   
     7     3     4 1   
     8     3    13 1   
     9     3    14 1   
    10     4     5 1   
    11     5     6 1   
    12     6    15 1   
    13     6    16 1   
    14     6    17 1   
    15     7     8 1   
    16     7     9 1   
@<TRIPOS>SUBSTRUCTURE
     1 SCH         1 TEMP              0 ****  ****    0 ROOT
