@<TRIPOS>MOLECULE
SCH
   17    16     1     0     0
SMALL
bcc


@<TRIPOS>ATOM
      1 N           12.7860    20.9940    16.1210 n8         1 SCH      -0.896800
      2 CA          14.0390    21.5610    15.6290 c3         1 SCH       0.014500
      3 CB          13.7900    22.4290    14.4120 c3         1 SCH       0.044700
      4 SG          12.9220    23.9770    14.8740 ss         1 SCH      -0.088100
      5 SD          11.2720    23.9650    13.6300 ss         1 SCH      -0.346100
      6 CE          10.1050    22.9180    14.5390 c3         1 SCH       0.003000
      7 C           14.8420    22.3140    16.7180 c          1 SCH       0.900600
      8 O           15.1030    21.6700    17.7510 o          1 SCH      -0.816300
      9 OXT         15.1450    23.5030    16.4740 o          1 SCH      -0.816300
     10 H           12.9960    20.4290    16.9350 hn         1 SCH       0.334800
     11 H2          12.2030    21.7490    16.4670 hn         1 SCH       0.334800
     12 HA          14.6550    20.7180    15.2890 h1         1 SCH       0.047700
     13 HB2         14.7280    22.7030    13.9310 h1         1 SCH       0.059700
     14 HB3         13.1710    21.9100    13.6820 h1         1 SCH       0.059700
     15 HE1          9.1950    22.8560    13.9410 h1         1 SCH       0.055033
     16 HE2         10.5090    21.9170    14.6750 h1         1 SCH       0.055033
     17 HE3          9.8650    23.3550    15.5060 h1         1 SCH       0.055033
@<TRIPOS>BOND
     1     1     2 1   
     2     1    10 1   
     3     1    11 1   
     4     2     3 1   
     5     2     7 1   
     6     2    12 1   
     7     3     4 1   
     8     3    13 1   
     9     3    14 1   
    10     4     5 1   
    11     5     6 1   
    12     6    15 1   
    13     6    16 1   
    14     6    17 1   
    15     7     8 1   
    16     7     9 1   
@<TRIPOS>SUBSTRUCTURE
     1 SCH         1 TEMP              0 ****  ****    0 ROOT
