@<TRIPOS>MOLECULE
SCI
   24    23     1     0     0
SMALL
No Charge or Current Charge


@<TRIPOS>ATOM
      1 N          120.3550   115.6480    35.3570 n8         1 SCI      -1.013200
      2 CA         121.8130   115.7650    35.7230 c3         1 SCI       0.029500
      3 CB         122.7180   115.3170    34.5380 c3         1 SCI      -0.050400
      4 CG         122.5530   113.8280    34.1320 c3         1 SCI      -0.069400
      5 CD         123.5590   113.3530    33.0580 c3         1 SCI       0.137800
      6 NE         123.3140   114.0230    31.7690 n2         1 SCI      -0.621900
      7 CZ         124.1260   114.8340    31.2200 c2         1 SCI       0.678100
      8 NH1        123.8850   115.4480    30.0420 nv         1 SCI      -1.032200
      9 S          125.6730   115.3810    31.8710 sh         1 SCI      -0.431000
     10 C          122.2750   117.1640    36.3290 c          1 SCI       0.708000
     11 OT1        122.7160   118.0290    35.5800 o          1 SCI      -0.734000
     12 OT2        122.1670   117.3280    37.5380 o          1 SCI      -0.734000
     13 HN1        119.7870   115.7900    36.2020 hn         1 SCI       0.384000
     14 HN2        120.1540   114.6790    35.0850 hn         1 SCI       0.384000
     15 HA         121.9710   115.0310    36.5250 h1         1 SCI      -0.003300
     16 HB1        122.5270   115.9620    33.6710 hc         1 SCI       0.049200
     17 HB2        123.7650   115.4800    34.8230 hc         1 SCI       0.049200
     18 HG1        122.6870   113.2030    35.0230 hc         1 SCI       0.036700
     19 HG2        121.5340   113.6470    33.7710 hc         1 SCI       0.036700
     20 HD1        124.5770   113.5160    33.4340 h1         1 SCI       0.037200
     21 HD2        123.4430   112.2680    32.9330 h1         1 SCI       0.037200
     22 HN11       124.1740   116.4170    30.0320 hn         1 SCI       0.458500
     23 HN12       122.9370   115.2950    29.7200 hn         1 SCI       0.458500
     24 HS         126.1950   115.7040    30.6680 hs         1 SCI       0.201800
@<TRIPOS>BOND
     1     1     2 1   
     2     1    13 1   
     3     1    14 1   
     4     2     3 1   
     5     2    10 1   
     6     2    15 1   
     7     3     4 1   
     8     3    16 1   
     9     3    17 1   
    10     4     5 1   
    11     4    18 1   
    12     4    19 1   
    13     5     6 1   
    14     5    20 1   
    15     5    21 1   
    16     6     7 2   
    17     7     8 1   
    18     7     9 1   
    19     8    22 1   
    20     8    23 1   
    21     9    24 1   
    22    10    11 1   
    23    10    12 1   
@<TRIPOS>SUBSTRUCTURE
     1 SCI         1 TEMP              0 ****  ****    0 ROOT
