@<TRIPOS>MOLECULE
SCI
   24    23     1     0     0
SMALL
abcg2


@<TRIPOS>ATOM
      1 N          120.3050   115.5510    35.2850 n8         1 SCI      -1.013200
      2 CA         121.6640   115.6620    35.8350 c3         1 SCI       0.029500
      3 CB         122.7130   115.3780    34.7570 c3         1 SCI      -0.050400
      4 CG         122.6450   113.9570    34.2080 c3         1 SCI      -0.069400
      5 CD         123.6580   113.6930    33.0990 c3         1 SCI       0.137800
      6 NE         123.3390   114.4590    31.9060 n2         1 SCI      -0.621900
      7 CZ         124.2390   114.7870    31.0760 c2         1 SCI       0.678100
      8 NH1        123.9380   115.4090    29.8850 nv         1 SCI      -1.032200
      9 S          125.9840   114.3890    31.3210 sh         1 SCI      -0.431000
     10 C          121.8800   117.0510    36.4940 c          1 SCI       0.708000
     11 OT1        120.8840   117.8120    36.5920 o          1 SCI      -0.734000
     12 OT2        123.0410   117.2970    36.9100 o          1 SCI      -0.734000
     13 HN1        119.7110   116.1720    35.8240 hn         1 SCI       0.384000
     14 HN2        119.9520   114.6080    35.3950 hn         1 SCI       0.384000
     15 HA         121.8220   114.9390    36.6500 h1         1 SCI      -0.003300
     16 HB1        122.5720   116.0920    33.9400 hc         1 SCI       0.049200
     17 HB2        123.7050   115.5570    35.1770 hc         1 SCI       0.049200
     18 HG1        122.8250   113.2460    35.0210 hc         1 SCI       0.036700
     19 HG2        121.6440   113.7510    33.8190 hc         1 SCI       0.036700
     20 HD1        124.6650   113.9290    33.4730 h1         1 SCI       0.037200
     21 HD2        123.6540   112.6250    32.8490 h1         1 SCI       0.037200
     22 HN11       124.6360   116.0230    29.4940 hn         1 SCI       0.458500
     23 HN12       123.0010   115.7910    29.8570 hn         1 SCI       0.458500
     24 HS         126.4300   114.9330    30.1780 hs         1 SCI       0.201800
@<TRIPOS>BOND
     1     1     2 1   
     2     1    13 1   
     3     1    14 1   
     4     2     3 1   
     5     2    10 1   
     6     2    15 1   
     7     3     4 1   
     8     3    16 1   
     9     3    17 1   
    10     4     5 1   
    11     4    18 1   
    12     4    19 1   
    13     5     6 1   
    14     5    20 1   
    15     5    21 1   
    16     6     7 2   
    17     7     8 1   
    18     7     9 1   
    19     8    22 1   
    20     8    23 1   
    21     9    24 1   
    22    10    11 1   
    23    10    12 1   
@<TRIPOS>SUBSTRUCTURE
     1 SCI         1 TEMP              0 ****  ****    0 ROOT
