@<TRIPOS>MOLECULE
SCJ
   38    41     1     0     0
SMALL
No Charge or Current Charge


@<TRIPOS>ATOM
      1 C01          1.9060     1.9370     0.2030 cc         1 SCJ      -0.291900
      2 C02          1.2660     0.7450     0.1130 cd         1 SCJ       0.459500
      3 N03         -0.0660     1.0530     0.0740 na         1 SCJ       0.068900
      4 N04         -0.3790     2.4100     0.1330 nd         1 SCJ      -0.615100
      5 C05          0.8580     2.9020     0.2100 cc         1 SCJ       0.440500
      6 N06          1.9160    -0.4660     0.0800 nd         1 SCJ      -0.689000
      7 C07          1.0250    -1.4600    -0.0090 cc         1 SCJ       0.502500
      8 C08         -0.4140    -1.2410    -0.0570 cc         1 SCJ      -0.334000
      9 C09         -0.9860     0.0140    -0.0180 cd         1 SCJ       0.404000
     10 N10         -2.3330     0.2670    -0.0650 nu         1 SCJ      -0.957200
     11 C11          1.5940    -2.8410    -0.0400 ca         1 SCJ      -0.162500
     12 C12         -3.4270    -0.7060    -0.0610 c3         1 SCJ       0.285100
     13 C13         -4.7510     0.0290    -0.0120 ca         1 SCJ      -0.178300
     14 C14         -5.5640     0.1040    -1.1590 ca         1 SCJ       0.355900
     15 N15         -6.7600     0.7390    -1.1790 nb         1 SCJ      -0.662000
     16 C16         -7.1830     1.3240    -0.0350 ca         1 SCJ       0.350900
     17 C17         -6.4380     1.2970     1.1560 ca         1 SCJ      -0.165000
     18 C18         -5.1990     0.6370     1.1750 ca         1 SCJ      -0.048000
     19 C19          3.0030    -3.0390    -0.0740 ca         1 SCJ      -0.073000
     20 C20          3.5640    -4.3270    -0.0970 ca         1 SCJ      -0.121500
     21 C21          2.7390    -5.4580    -0.0820 ca         1 SCJ      -0.092000
     22 C22          1.3490    -5.2950    -0.0400 ca         1 SCJ      -0.121500
     23 C23          0.7810    -4.0080    -0.0170 ca         1 SCJ      -0.073000
     24 Br24         3.7650     2.2640     0.2980 br         1 SCJ      -0.020700
     25 H05          0.9780     3.9760     0.2710 h4         1 SCJ       0.055800
     26 H08         -1.0760    -2.0850    -0.1410 ha         1 SCJ       0.138000
     27 HN10        -2.5690     1.2610     0.0020 hn         1 SCJ       0.532000
     28 H121        -3.3810    -1.3350    -0.9620 h1         1 SCJ       0.056700
     29 H122        -3.3460    -1.3670     0.8130 h1         1 SCJ       0.056700
     30 H14         -5.2500    -0.3570    -2.0950 h4         1 SCJ       0.022100
     31 H16         -8.1470     1.8290    -0.0740 h4         1 SCJ       0.025100
     32 H17         -6.8230     1.7820     2.0490 ha         1 SCJ       0.130000
     33 H18         -4.6020     0.6000     2.0850 ha         1 SCJ       0.127000
     34 H19          3.6900    -2.1950    -0.0890 ha         1 SCJ       0.124500
     35 H20          4.6450    -4.4460    -0.1270 ha         1 SCJ       0.115500
     36 H21          3.1740    -6.4550    -0.1000 ha         1 SCJ       0.114000
     37 H22          0.7040    -6.1700    -0.0220 ha         1 SCJ       0.115500
     38 H23         -0.3010    -3.9580     0.0290 ha         1 SCJ       0.124500
@<TRIPOS>BOND
     1     1     2 2   
     2     1     5 1   
     3     1    24 1   
     4     2     3 1   
     5     2     6 1   
     6     3     4 1   
     7     3     9 1   
     8     4     5 2   
     9     5    25 1   
    10     6     7 2   
    11     7     8 1   
    12     7    11 1   
    13     8     9 2   
    14     8    26 1   
    15     9    10 1   
    16    10    12 1   
    17    10    27 1   
    18    11    19 ar  
    19    11    23 ar  
    20    12    13 1   
    21    12    28 1   
    22    12    29 1   
    23    13    14 ar  
    24    13    18 ar  
    25    14    15 ar  
    26    14    30 1   
    27    15    16 ar  
    28    16    17 ar  
    29    16    31 1   
    30    17    18 ar  
    31    17    32 1   
    32    18    33 1   
    33    19    20 ar  
    34    19    34 1   
    35    20    21 ar  
    36    20    35 1   
    37    21    22 ar  
    38    21    36 1   
    39    22    23 ar  
    40    22    37 1   
    41    23    38 1   
@<TRIPOS>SUBSTRUCTURE
     1 SCJ         1 TEMP              0 ****  ****    0 ROOT
