@<TRIPOS>MOLECULE
SCJ
   38    41     1     0     0
SMALL
abcg2


@<TRIPOS>ATOM
      1 C01          1.8690     2.0030     0.2830 cc         1 SCJ      -0.291900
      2 C02          1.2950     0.7410     0.1910 cd         1 SCJ       0.459500
      3 N03         -0.0540     0.9960     0.0900 na         1 SCJ       0.068900
      4 N04         -0.3600     2.2980     0.1100 nd         1 SCJ      -0.615100
      5 C05          0.8070     2.9080     0.2260 cc         1 SCJ       0.440500
      6 N06          1.8010    -0.4890     0.1930 nd         1 SCJ      -0.689000
      7 C07          0.9400    -1.4830     0.0770 cc         1 SCJ       0.502500
      8 C08         -0.4490    -1.2920    -0.0510 cc         1 SCJ      -0.334000
      9 C09         -0.9670    -0.0090    -0.0360 cd         1 SCJ       0.404000
     10 N10         -2.2470     0.3430    -0.1290 nu         1 SCJ      -0.957200
     11 C11          1.5090    -2.8480     0.0600 ca         1 SCJ      -0.162500
     12 C12         -3.3100    -0.6190    -0.3450 c3         1 SCJ       0.285100
     13 C13         -4.6430     0.0430    -0.1580 ca         1 SCJ      -0.178300
     14 C14         -5.4280     0.3860    -1.2520 ca         1 SCJ       0.355900
     15 N15         -6.6100     0.9840    -1.1550 nb         1 SCJ      -0.662000
     16 C16         -7.0610     1.2700     0.0600 ca         1 SCJ       0.350900
     17 C17         -6.3590     0.9740     1.2210 ca         1 SCJ      -0.165000
     18 C18         -5.1280     0.3520     1.1080 ca         1 SCJ      -0.048000
     19 C19          2.8340    -3.0370    -0.3380 ca         1 SCJ      -0.073000
     20 C20          3.3850    -4.3080    -0.3700 ca         1 SCJ      -0.121500
     21 C21          2.6260    -5.4090     0.0060 ca         1 SCJ      -0.092000
     22 C22          1.3120    -5.2300     0.4150 ca         1 SCJ      -0.121500
     23 C23          0.7560    -3.9590     0.4390 ca         1 SCJ      -0.073000
     24 BR24         3.6810     2.3570     0.4450 br         1 SCJ      -0.020700
     25 H05          0.8560     3.9860     0.2660 h4         1 SCJ       0.055800
     26 H08         -1.1130    -2.1290    -0.1970 ha         1 SCJ       0.138000
     27 HN10        -2.4510     1.3250    -0.2480 hn         1 SCJ       0.532000
     28 H121        -3.2410    -1.0550    -1.3470 h1         1 SCJ       0.056700
     29 H122        -3.2020    -1.4360     0.3720 h1         1 SCJ       0.056700
     30 H14         -5.0810     0.1600    -2.2550 h4         1 SCJ       0.022100
     31 H16         -8.0270     1.7590     0.1160 h4         1 SCJ       0.025100
     32 H17         -6.7740     1.2240     2.1880 ha         1 SCJ       0.130000
     33 H18         -4.5540     0.1030     1.9920 ha         1 SCJ       0.127000
     34 H19          3.4280    -2.1820    -0.6310 ha         1 SCJ       0.124500
     35 H20          4.4110    -4.4400    -0.6900 ha         1 SCJ       0.115500
     36 H21          3.0580    -6.4020    -0.0190 ha         1 SCJ       0.114000
     37 H22          0.7170    -6.0810     0.7190 ha         1 SCJ       0.115500
     38 H23         -0.2650    -3.8420     0.7790 ha         1 SCJ       0.124500
@<TRIPOS>BOND
     1     1     2 2   
     2     1     5 1   
     3     1    24 1   
     4     2     3 1   
     5     2     6 1   
     6     3     4 1   
     7     3     9 1   
     8     4     5 2   
     9     5    25 1   
    10     6     7 2   
    11     7     8 1   
    12     7    11 1   
    13     8     9 2   
    14     8    26 1   
    15     9    10 1   
    16    10    12 1   
    17    10    27 1   
    18    11    19 ar  
    19    11    23 ar  
    20    12    13 1   
    21    12    28 1   
    22    12    29 1   
    23    13    14 ar  
    24    13    18 ar  
    25    14    15 ar  
    26    14    30 1   
    27    15    16 ar  
    28    16    17 ar  
    29    16    31 1   
    30    17    18 ar  
    31    17    32 1   
    32    18    33 1   
    33    19    20 ar  
    34    19    34 1   
    35    20    21 ar  
    36    20    35 1   
    37    21    22 ar  
    38    21    36 1   
    39    22    23 ar  
    40    22    37 1   
    41    23    38 1   
@<TRIPOS>SUBSTRUCTURE
     1 SCJ         1 TEMP              0 ****  ****    0 ROOT
