@<TRIPOS>MOLECULE
SCK
   50    49     1     0     0
SMALL
No Charge or Current Charge


@<TRIPOS>ATOM
      1 O13         -1.0960    -2.4120    -0.0730 o          1 SCK      -0.448000
      2 C12         -1.2870    -1.2060    -0.0190 c          1 SCK       0.596600
      3 O14         -2.5080    -0.6220     0.1910 os         1 SCK      -0.472100
      4 C15         -3.6610    -1.4800     0.3030 c3         1 SCK       0.145600
      5 C16         -4.9120    -0.6010     0.5420 c3         1 SCK       0.094600
      6 N17         -5.4020     0.3440    -0.5850 n4         1 SCK      -0.496000
      7 C20         -5.6740    -0.4480    -1.8740 c3         1 SCK       0.076067
      8 C19         -4.3620     1.4400    -0.8690 c3         1 SCK       0.076067
      9 C18         -6.7070     1.0140    -0.1310 c3         1 SCK       0.076067
     10 C11         -0.1700    -0.1660    -0.0810 c3         1 SCK      -0.129900
     11 C6           0.4440     0.0950     1.3230 c3         1 SCK      -0.129900
     12 C5           1.5680     1.1260     1.2600 c          1 SCK       0.596600
     13 O7           1.3860     2.3340     1.3050 o          1 SCK      -0.448000
     14 O4           2.7810     0.5330     1.0340 os         1 SCK      -0.472100
     15 C3           3.9370     1.3820     0.8940 c3         1 SCK       0.145600
     16 C2           5.1770     0.4910     0.6340 c3         1 SCK       0.094600
     17 N1           5.2680    -0.3160    -0.6850 n4         1 SCK      -0.496000
     18 C8           5.1360     0.6170    -1.9000 c3         1 SCK       0.076067
     19 C9           6.6370    -1.0110    -0.7420 c3         1 SCK       0.076067
     20 C10          4.1720    -1.3910    -0.7460 c3         1 SCK       0.076067
     21 H151        -3.5470    -2.1680     1.1520 h1         1 SCK       0.088700
     22 H152        -3.7980    -2.0830    -0.6030 h1         1 SCK       0.088700
     23 H161        -4.7290     0.0110     1.4270 hx         1 SCK       0.108700
     24 H162        -5.7420    -1.2720     0.7750 hx         1 SCK       0.108700
     25 H201        -4.7440    -0.8980    -2.2270 hx         1 SCK       0.099589
     26 H202        -6.4090    -1.2290    -1.6710 hx         1 SCK       0.099589
     27 H203        -6.0620     0.2300    -2.6370 hx         1 SCK       0.099589
     28 H191        -4.7570     2.1270    -1.6200 hx         1 SCK       0.099589
     29 H192        -4.1510     1.9850     0.0540 hx         1 SCK       0.099589
     30 H193        -3.4450     0.9810    -1.2410 hx         1 SCK       0.099589
     31 H181        -7.4600     0.2480     0.0630 hx         1 SCK       0.099589
     32 H182        -6.5220     1.5860     0.7810 hx         1 SCK       0.099589
     33 H183        -7.0620     1.6840    -0.9170 hx         1 SCK       0.099589
     34 H111         0.6130    -0.5230    -0.7600 hc         1 SCK       0.094950
     35 H112        -0.5900     0.7810    -0.4400 hc         1 SCK       0.094950
     36 H61         -0.3380     0.4590     2.0000 hc         1 SCK       0.094950
     37 H62          0.8580    -0.8540     1.6870 hc         1 SCK       0.094950
     38 H31          3.8130     2.0910     0.0660 h1         1 SCK       0.088700
     39 H32          4.1040     1.9610     1.8110 h1         1 SCK       0.088700
     40 H21          6.0560     1.1390     0.6710 hx         1 SCK       0.108700
     41 H22          5.2600    -0.2180     1.4600 hx         1 SCK       0.108700
     42 H81          5.9130     1.3840    -1.8550 hx         1 SCK       0.099589
     43 H82          5.2510     0.0340    -2.8160 hx         1 SCK       0.099589
     44 H83          4.1510     1.0880    -1.8900 hx         1 SCK       0.099589
     45 H91          6.7370    -1.6820     0.1130 hx         1 SCK       0.099589
     46 H92          6.7130    -1.5840    -1.6690 hx         1 SCK       0.099589
     47 H93          7.4270    -0.2580    -0.7130 hx         1 SCK       0.099589
     48 H101         3.1930    -0.9090    -0.7570 hx         1 SCK       0.099589
     49 H102         4.2970    -1.9850    -1.6530 hx         1 SCK       0.099589
     50 H103         4.2510    -2.0370     0.1310 hx         1 SCK       0.099589
@<TRIPOS>BOND
     1     1     2 2   
     2     2     3 1   
     3     2    10 1   
     4     3     4 1   
     5     4     5 1   
     6     4    21 1   
     7     4    22 1   
     8     5     6 1   
     9     5    23 1   
    10     5    24 1   
    11     6     7 1   
    12     6     8 1   
    13     6     9 1   
    14     7    25 1   
    15     7    26 1   
    16     7    27 1   
    17     8    28 1   
    18     8    29 1   
    19     8    30 1   
    20     9    31 1   
    21     9    32 1   
    22     9    33 1   
    23    10    11 1   
    24    10    34 1   
    25    10    35 1   
    26    11    12 1   
    27    11    36 1   
    28    11    37 1   
    29    12    13 2   
    30    12    14 1   
    31    14    15 1   
    32    15    16 1   
    33    15    38 1   
    34    15    39 1   
    35    16    17 1   
    36    16    40 1   
    37    16    41 1   
    38    17    18 1   
    39    17    19 1   
    40    17    20 1   
    41    18    42 1   
    42    18    43 1   
    43    18    44 1   
    44    19    45 1   
    45    19    46 1   
    46    19    47 1   
    47    20    48 1   
    48    20    49 1   
    49    20    50 1   
@<TRIPOS>SUBSTRUCTURE
     1 SCK         1 TEMP              0 ****  ****    0 ROOT
