@<TRIPOS>MOLECULE
SCK
   50    49     1     0     0
SMALL
abcg2


@<TRIPOS>ATOM
      1 O13         -1.4910    -2.0140    -0.0070 o          1 SCK      -0.448000
      2 C12         -1.7290    -0.8450     0.1530 c          1 SCK       0.596600
      3 O14         -2.9630    -0.3680     0.3100 os         1 SCK      -0.472100
      4 C15         -4.0440    -1.2940     0.2420 c3         1 SCK       0.145600
      5 C16         -5.3350    -0.5920     0.5770 c3         1 SCK       0.094600
      6 N17         -5.8820     0.3900    -0.4260 n4         1 SCK      -0.496000
      7 C20         -6.0540    -0.2410    -1.7630 c3         1 SCK       0.076067
      8 C19         -5.0250     1.6030    -0.5600 c3         1 SCK       0.076067
      9 C18         -7.2210     0.8160     0.0780 c3         1 SCK       0.076067
     10 C11         -0.7120     0.2610     0.1880 c3         1 SCK      -0.129900
     11 C6           0.7090    -0.2690     0.1990 c3         1 SCK      -0.129900
     12 C5           1.7260     0.8360     0.1570 c          1 SCK       0.596600
     13 O7           1.4880     2.0040    -0.0080 o          1 SCK      -0.448000
     14 O4           2.9600     0.3590     0.3140 os         1 SCK      -0.472100
     15 C3           4.0410     1.2830     0.2440 c3         1 SCK       0.145600
     16 C2           5.3320     0.5810     0.5830 c3         1 SCK       0.094600
     17 N1           5.8840    -0.3960    -0.4220 n4         1 SCK      -0.496000
     18 C8           6.0800     0.2460    -1.7510 c3         1 SCK       0.076067
     19 C9           7.2120    -0.8380     0.0970 c3         1 SCK       0.076067
     20 C10          5.0190    -1.6010    -0.5800 c3         1 SCK       0.076067
     21 H151        -3.9250    -2.0760     0.9940 h1         1 SCK       0.088700
     22 H152        -4.0750    -1.7860    -0.7330 h1         1 SCK       0.088700
     23 H161        -5.2520    -0.0600     1.5250 hx         1 SCK       0.108700
     24 H162        -6.1000    -1.3610     0.6920 hx         1 SCK       0.108700
     25 H201        -5.0850    -0.4790    -2.1910 hx         1 SCK       0.099589
     26 H202        -6.6480    -1.1460    -1.6630 hx         1 SCK       0.099589
     27 H203        -6.5650     0.4620    -2.4160 hx         1 SCK       0.099589
     28 H191        -5.5540     2.3270    -1.1740 hx         1 SCK       0.099589
     29 H192        -4.8400     2.0240     0.4240 hx         1 SCK       0.099589
     30 H193        -4.0870     1.3460    -1.0380 hx         1 SCK       0.099589
     31 H181        -7.8770    -0.0490     0.1270 hx         1 SCK       0.099589
     32 H182        -7.1080     1.2490     1.0680 hx         1 SCK       0.099589
     33 H183        -7.6370     1.5540    -0.6020 hx         1 SCK       0.099589
     34 H111        -0.8840     0.8980    -0.6840 hc         1 SCK       0.094950
     35 H112        -0.9030     0.8910     1.0590 hc         1 SCK       0.094950
     36 H61          0.8920    -0.8850     1.0820 hc         1 SCK       0.094950
     37 H62          0.8880    -0.9210    -0.6610 hc         1 SCK       0.094950
     38 H31          4.0740     1.7720    -0.7310 h1         1 SCK       0.088700
     39 H32          3.9230     2.0680     0.9950 h1         1 SCK       0.088700
     40 H21          6.0950     1.3490     0.7060 hx         1 SCK       0.108700
     41 H22          5.2430     0.0440     1.5270 hx         1 SCK       0.108700
     42 H81          6.6890     1.1390    -1.6350 hx         1 SCK       0.099589
     43 H82          6.5860    -0.4590    -2.4050 hx         1 SCK       0.099589
     44 H83          5.1200     0.5060    -2.1860 hx         1 SCK       0.099589
     45 H91          7.0790    -1.2910     1.0760 hx         1 SCK       0.099589
     46 H92          7.6370    -1.5640    -0.5900 hx         1 SCK       0.099589
     47 H93          7.8710     0.0220     0.1760 hx         1 SCK       0.099589
     48 H101         4.0910    -1.3310    -1.0720 hx         1 SCK       0.099589
     49 H102         5.5510    -2.3240    -1.1910 hx         1 SCK       0.099589
     50 H103         4.8140    -2.0280     0.3970 hx         1 SCK       0.099589
@<TRIPOS>BOND
     1     1     2 2   
     2     2     3 1   
     3     2    10 1   
     4     3     4 1   
     5     4     5 1   
     6     4    21 1   
     7     4    22 1   
     8     5     6 1   
     9     5    23 1   
    10     5    24 1   
    11     6     7 1   
    12     6     8 1   
    13     6     9 1   
    14     7    25 1   
    15     7    26 1   
    16     7    27 1   
    17     8    28 1   
    18     8    29 1   
    19     8    30 1   
    20     9    31 1   
    21     9    32 1   
    22     9    33 1   
    23    10    11 1   
    24    10    34 1   
    25    10    35 1   
    26    11    12 1   
    27    11    36 1   
    28    11    37 1   
    29    12    13 2   
    30    12    14 1   
    31    14    15 1   
    32    15    16 1   
    33    15    38 1   
    34    15    39 1   
    35    16    17 1   
    36    16    40 1   
    37    16    41 1   
    38    17    18 1   
    39    17    19 1   
    40    17    20 1   
    41    18    42 1   
    42    18    43 1   
    43    18    44 1   
    44    19    45 1   
    45    19    46 1   
    46    19    47 1   
    47    20    48 1   
    48    20    49 1   
    49    20    50 1   
@<TRIPOS>SUBSTRUCTURE
     1 SCK         1 TEMP              0 ****  ****    0 ROOT
