@<TRIPOS>MOLECULE
SCL
   23    23     1     0     0
SMALL
No Charge or Current Charge


@<TRIPOS>ATOM
      1 C1           0.1690    -0.1720    -1.1840 ca         1 SCL      -0.277600
      2 C2          -0.6730     0.1940    -2.2610 ca         1 SCL       0.226100
      3 C3          -0.1560     0.3610    -3.5530 ca         1 SCL      -0.172000
      4 C4           1.2100     0.1660    -3.8020 ca         1 SCL      -0.036000
      5 C5           2.0590    -0.1970    -2.7480 ca         1 SCL      -0.168000
      6 C6           1.5490    -0.3660    -1.4500 ca         1 SCL      -0.032000
      7 C7          -0.3960    -0.3500     0.2100 c          1 SCL       0.633700
      8 C8          -0.0160     0.3480     3.3090 c          1 SCL       0.584100
      9 C9          -0.5970     0.1280     4.7000 c3         1 SCL      -0.162100
     10 N1           0.4920    -0.7030     1.2110 ns         1 SCL      -0.334400
     11 O1          -2.0050     0.3940    -2.0680 oh         1 SCL      -0.543100
     12 O2          -1.5900    -0.1880     0.4400 o          1 SCL      -0.605100
     13 O3          -0.0090    -0.8170     2.5710 os         1 SCL      -0.234200
     14 O4           0.3960     1.4310     2.9120 o          1 SCL      -0.444000
     15 H3          -0.8190     0.6420    -4.3680 ha         1 SCL       0.135000
     16 H4           1.6080     0.2960    -4.8070 ha         1 SCL       0.118000
     17 H5           3.1190    -0.3500    -2.9360 ha         1 SCL       0.121000
     18 H6           2.2450    -0.6490    -0.6640 ha         1 SCL       0.103000
     19 H91         -0.6050     1.0430     5.3020 hc         1 SCL       0.077033
     20 H92         -1.5980    -0.3040     4.5990 hc         1 SCL       0.077033
     21 H93         -0.0430    -0.6800     5.1900 hc         1 SCL       0.077033
     22 HN1          1.4900    -0.8130     1.0690 hn         1 SCL       0.338500
     23 HO1         -2.1640     0.2260    -1.1030 ho         1 SCL       0.520000
@<TRIPOS>BOND
     1     1     2 ar  
     2     1     6 ar  
     3     1     7 1   
     4     2     3 ar  
     5     2    11 1   
     6     3     4 ar  
     7     3    15 1   
     8     4     5 ar  
     9     4    16 1   
    10     5     6 ar  
    11     5    17 1   
    12     6    18 1   
    13     7    10 1   
    14     7    12 2   
    15     8     9 1   
    16     8    13 1   
    17     8    14 2   
    18     9    19 1   
    19     9    20 1   
    20     9    21 1   
    21    10    13 1   
    22    10    22 1   
    23    11    23 1   
@<TRIPOS>SUBSTRUCTURE
     1 SCL         1 TEMP              0 ****  ****    0 ROOT
