@<TRIPOS>MOLECULE
SCL
   23    23     1     0     0
SMALL
abcg2


@<TRIPOS>ATOM
      1 C1           0.1550    -0.1340    -1.1980 ca         1 SCL      -0.277600
      2 C2          -0.6990     0.0530    -2.3050 ca         1 SCL       0.226100
      3 C3          -0.1500     0.1590    -3.5870 ca         1 SCL      -0.172000
      4 C4           1.2130     0.0720    -3.7730 ca         1 SCL      -0.036000
      5 C5           2.0670    -0.1270    -2.6890 ca         1 SCL      -0.168000
      6 C6           1.5350    -0.2300    -1.4230 ca         1 SCL      -0.032000
      7 C7          -0.4600    -0.2180     0.1430 c          1 SCL       0.633700
      8 C8           0.1580     0.3720     3.4350 c          1 SCL       0.584100
      9 C9          -0.5650    -0.0220     4.6820 c3         1 SCL      -0.162100
     10 N1           0.3680    -0.1200     1.2080 ns         1 SCL      -0.334400
     11 O1          -2.0220     0.1420    -2.1940 oh         1 SCL      -0.543100
     12 O2          -1.6760    -0.3040     0.2970 o          1 SCL      -0.605100
     13 O3          -0.1940    -0.4500     2.4130 os         1 SCL      -0.234200
     14 O4           0.9420     1.2660     3.3090 o          1 SCL      -0.444000
     15 H3          -0.8160     0.3010    -4.4280 ha         1 SCL       0.135000
     16 H4           1.6180     0.1450    -4.7740 ha         1 SCL       0.118000
     17 H5           3.1350    -0.2070    -2.8380 ha         1 SCL       0.121000
     18 H6           2.2210    -0.4030    -0.6040 ha         1 SCL       0.103000
     19 H91         -0.0080     0.3150     5.5510 hc         1 SCL       0.077033
     20 H92         -1.5450     0.4580     4.6940 hc         1 SCL       0.077033
     21 H93         -0.7180    -1.0980     4.7440 hc         1 SCL       0.077033
     22 HN1          1.3590    -0.3140     1.1550 hn         1 SCL       0.338500
     23 HO1         -2.2510    -0.0180    -1.2490 ho         1 SCL       0.520000
@<TRIPOS>BOND
     1     1     2 ar  
     2     1     6 ar  
     3     1     7 1   
     4     2     3 ar  
     5     2    11 1   
     6     3     4 ar  
     7     3    15 1   
     8     4     5 ar  
     9     4    16 1   
    10     5     6 ar  
    11     5    17 1   
    12     6    18 1   
    13     7    10 1   
    14     7    12 2   
    15     8     9 1   
    16     8    13 1   
    17     8    14 2   
    18     9    19 1   
    19     9    20 1   
    20     9    21 1   
    21    10    13 1   
    22    10    22 1   
    23    11    23 1   
@<TRIPOS>SUBSTRUCTURE
     1 SCL         1 TEMP              0 ****  ****    0 ROOT
