@<TRIPOS>MOLECULE
SCN
    3     2     1     0     0
SMALL
No Charge or Current Charge


@<TRIPOS>ATOM
      1 S          -27.9130    47.0130    47.1480 s          1 SCN      -0.898100
      2 C          -27.2080    47.9130    48.2620 c1         1 SCN       0.617100
      3 N          -27.4980    48.4220    49.2670 n1         1 SCN      -0.719000
@<TRIPOS>BOND
     1     1     2 1   
     2     2     3 3   
@<TRIPOS>SUBSTRUCTURE
     1 SCN         1 TEMP              0 ****  ****    0 ROOT
