@<TRIPOS>MOLECULE
SCN
    3     2     1     0     0
SMALL
bcc


@<TRIPOS>ATOM
      1 S          -27.7480    46.9750    46.9950 s          1 SCN      -0.898100
      2 C          -27.5170    47.8690    48.3570 c1         1 SCN       0.527900
      3 N          -27.3540    48.5040    49.3250 n1         1 SCN      -0.629800
@<TRIPOS>BOND
     1     1     2 1   
     2     2     3 3   
@<TRIPOS>SUBSTRUCTURE
     1 SCN         1 TEMP              0 ****  ****    0 ROOT
