@<TRIPOS>MOLECULE
SCQ
   38    41     1     0     0
SMALL
abcg2


@<TRIPOS>ATOM
      1 C01         -0.2650    31.8390     8.6590 cc         1 SCQ      -0.293900
      2 C02          0.2600    30.5970     9.0380 cd         1 SCQ       0.005000
      3 N03          1.5590    30.6260     8.5610 na         1 SCQ       0.265400
      4 N04          1.8730    31.7840     7.9210 nd         1 SCQ      -0.621100
      5 C05          0.7530    32.5130     7.9870 cc         1 SCQ       0.441500
      6 C06         -0.2050    29.4560     9.7050 cd         1 SCQ      -0.158000
      7 C07          0.6540    28.3880     9.8740 cc         1 SCQ       0.058000
      8 C08          1.9810    28.4650     9.3820 cc         1 SCQ      -0.254000
      9 C09          2.4400    29.5860     8.7250 cd         1 SCQ       0.362000
     10 N10          3.6850    29.7780     8.2300 nu         1 SCQ      -0.969200
     11 C11          0.2010    27.1500    10.5470 ca         1 SCQ      -0.048000
     12 C12          4.6600    28.7120     8.1480 c3         1 SCQ       0.291100
     13 C13          4.2540    27.5650     7.2480 ca         1 SCQ      -0.232300
     14 C14          3.4720    27.7400     6.1130 ca         1 SCQ       0.115400
     15 N15          3.1290    26.7260     5.3150 nb         1 SCQ      -0.164500
     16 C16          3.5760    25.5190     5.6620 ca         1 SCQ       0.117900
     17 N17          4.3210    25.2330     6.7280 nb         1 SCQ      -0.164500
     18 C18          4.6500    26.2600     7.5140 ca         1 SCQ       0.115400
     19 C19         -0.7320    27.2000    11.5890 ca         1 SCQ      -0.092000
     20 C20         -1.1670    26.0370    12.2110 ca         1 SCQ      -0.112500
     21 C21         -0.6780    24.7990    11.8040 ca         1 SCQ      -0.100000
     22 C22          0.2520    24.7350    10.7700 ca         1 SCQ      -0.112500
     23 C23          0.6890    25.8990    10.1490 ca         1 SCQ      -0.092000
     24 BR24        -2.0130    32.4420     9.0160 br         1 SCQ      -0.044700
     25 H05          0.7220    33.4980     7.5480 h4         1 SCQ       0.055800
     26 H06         -1.2310    29.4270    10.0400 ha         1 SCQ       0.146000
     27 H08          2.6590    27.6420     9.5350 ha         1 SCQ       0.134000
     28 HN10         3.8170    30.6040     7.6660 hn         1 SCQ       0.524000
     29 H121         4.8740    28.3230     9.1470 h1         1 SCQ       0.067200
     30 H122         5.5840    29.1570     7.7790 h1         1 SCQ       0.067200
     31 H14          3.1010    28.7230     5.8420 h4         1 SCQ       0.028600
     32 H16          3.3040    24.6910     5.0170 h5         1 SCQ       0.055100
     33 H18          5.2460    26.0350     8.3940 h4         1 SCQ       0.028600
     34 H19         -1.1050    28.1580    11.9270 ha         1 SCQ       0.116000
     35 H20         -1.8830    26.0980    13.0210 ha         1 SCQ       0.116000
     36 H21         -1.0160    23.8920    12.2900 ha         1 SCQ       0.115000
     37 H22          0.6350    23.7770    10.4420 ha         1 SCQ       0.116000
     38 H23          1.3980    25.8330     9.3340 ha         1 SCQ       0.116000
@<TRIPOS>BOND
     1     1     2 2   
     2     1     5 1   
     3     1    24 1   
     4     2     3 1   
     5     2     6 1   
     6     3     4 1   
     7     3     9 1   
     8     4     5 2   
     9     5    25 1   
    10     6     7 2   
    11     6    26 1   
    12     7     8 1   
    13     7    11 1   
    14     8     9 2   
    15     8    27 1   
    16     9    10 1   
    17    10    12 1   
    18    10    28 1   
    19    11    19 ar  
    20    11    23 ar  
    21    12    13 1   
    22    12    29 1   
    23    12    30 1   
    24    13    14 ar  
    25    13    18 ar  
    26    14    15 ar  
    27    14    31 1   
    28    15    16 ar  
    29    16    17 ar  
    30    16    32 1   
    31    17    18 ar  
    32    18    33 1   
    33    19    20 ar  
    34    19    34 1   
    35    20    21 ar  
    36    20    35 1   
    37    21    22 ar  
    38    21    36 1   
    39    22    23 ar  
    40    22    37 1   
    41    23    38 1   
@<TRIPOS>SUBSTRUCTURE
     1 SCQ         1 TEMP              0 ****  ****    0 ROOT
