@<TRIPOS>MOLECULE
SCQ
   38    41     1     0     0
SMALL
No Charge or Current Charge


@<TRIPOS>ATOM
      1 C01         -0.3290    31.6200     8.6310 cc         1 SCQ      -0.293900
      2 C02          0.3190    30.4940     9.0290 cd         1 SCQ       0.005000
      3 N03          1.6070    30.6370     8.5760 na         1 SCQ       0.265400
      4 N04          1.8620    31.8140     7.8740 nd         1 SCQ      -0.621100
      5 C05          0.6590    32.3790     7.9410 cc         1 SCQ       0.441500
      6 C06         -0.1820    29.3720     9.7450 cd         1 SCQ      -0.158000
      7 C07          0.7400    28.3660    10.0000 cc         1 SCQ       0.058000
      8 C08          2.0910    28.5020     9.4770 cc         1 SCQ      -0.254000
      9 C09          2.5550    29.6070     8.7690 cd         1 SCQ       0.362000
     10 N10          3.8420    29.7250     8.2760 nu         1 SCQ      -0.969200
     11 C11          0.2440    27.1470    10.6830 ca         1 SCQ      -0.048000
     12 C12          4.8210    28.6460     8.0860 c3         1 SCQ       0.291100
     13 C13          4.2730    27.6200     7.1120 ca         1 SCQ      -0.232300
     14 C14          3.9840    27.9550     5.7740 ca         1 SCQ       0.115400
     15 N15          3.4910    27.0460     4.9080 nb         1 SCQ      -0.164500
     16 C16          3.2930    25.8000     5.3900 ca         1 SCQ       0.117900
     17 N17          3.5400    25.3750     6.6470 nb         1 SCQ      -0.164500
     18 C18          4.0330    26.2900     7.5060 ca         1 SCQ       0.115400
     19 C19         -0.8890    27.1710    11.5370 ca         1 SCQ      -0.092000
     20 C20         -1.3370    26.0030    12.1790 ca         1 SCQ      -0.112500
     21 C21         -0.6670    24.7870    11.9830 ca         1 SCQ      -0.100000
     22 C22          0.4570    24.7430    11.1480 ca         1 SCQ      -0.112500
     23 C23          0.9100    25.9100    10.5080 ca         1 SCQ      -0.092000
     24 Br24        -2.1360    32.0830     8.9170 br         1 SCQ      -0.044700
     25 H05          0.5180    33.3460     7.4740 h4         1 SCQ       0.055800
     26 H06         -1.2250    29.3260    10.0310 ha         1 SCQ       0.146000
     27 H08          2.7880    27.7030     9.6790 ha         1 SCQ       0.134000
     28 HN10         3.9930    30.5950     7.7580 hn         1 SCQ       0.524000
     29 H121         5.0550    28.1660     9.0470 h1         1 SCQ       0.067200
     30 H122         5.7620    29.0530     7.6870 h1         1 SCQ       0.067200
     31 H14          4.1440    28.9620     5.3900 h4         1 SCQ       0.028600
     32 H16          2.8950    25.0640     4.6940 h5         1 SCQ       0.055100
     33 H18          4.2340    25.9500     8.5210 h4         1 SCQ       0.028600
     34 H19         -1.4170    28.0960    11.7480 ha         1 SCQ       0.116000
     35 H20         -2.2040    26.0440    12.8350 ha         1 SCQ       0.116000
     36 H21         -1.0160    23.8840    12.4800 ha         1 SCQ       0.115000
     37 H22          0.9790    23.8010    10.9900 ha         1 SCQ       0.116000
     38 H23          1.7680    25.8270     9.8490 ha         1 SCQ       0.116000
@<TRIPOS>BOND
     1     1     2 2   
     2     1     5 1   
     3     1    24 1   
     4     2     3 1   
     5     2     6 1   
     6     3     4 1   
     7     3     9 1   
     8     4     5 2   
     9     5    25 1   
    10     6     7 2   
    11     6    26 1   
    12     7     8 1   
    13     7    11 1   
    14     8     9 2   
    15     8    27 1   
    16     9    10 1   
    17    10    12 1   
    18    10    28 1   
    19    11    19 ar  
    20    11    23 ar  
    21    12    13 1   
    22    12    29 1   
    23    12    30 1   
    24    13    14 ar  
    25    13    18 ar  
    26    14    15 ar  
    27    14    31 1   
    28    15    16 ar  
    29    16    17 ar  
    30    16    32 1   
    31    17    18 ar  
    32    18    33 1   
    33    19    20 ar  
    34    19    34 1   
    35    20    21 ar  
    36    20    35 1   
    37    21    22 ar  
    38    21    36 1   
    39    22    23 ar  
    40    22    37 1   
    41    23    38 1   
@<TRIPOS>SUBSTRUCTURE
     1 SCQ         1 TEMP              0 ****  ****    0 ROOT
