@<TRIPOS>MOLECULE
SCS
   20    19     1     0     0
SMALL
No Charge or Current Charge


@<TRIPOS>ATOM
      1 N           13.4430    20.4370    16.3380 n8         1 SCS      -0.903800
      2 CA          14.3630    21.4610    15.6970 c3         1 SCS       0.011500
      3 C           15.2060    22.4090    16.6530 c          1 SCS       0.917600
      4 O           14.8990    22.4850    17.8400 o          1 SCS      -0.822800
      5 CB          13.5960    22.3040    14.6480 c3         1 SCS       0.033700
      6 SG          12.2980    23.3720    15.4190 ss         1 SCS      -0.153100
      7 SD          11.4630    24.3880    13.7890 ss         1 SCS      -0.263100
      8 CE           8.9870    23.1710    14.2620 c3         1 SCS      -0.086100
      9 CZ          10.1070    23.2750    13.2110 c3         1 SCS       0.005700
     10 OXT         16.2160    22.9410    16.2030 o          1 SCS      -0.822800
     11 HN          13.9780    19.8880    17.0190 hn         1 SCS       0.339300
     12 H2          12.7590    20.9380    16.9160 hn         1 SCS       0.339300
     13 H3          14.3010    22.9480    14.1070 h1         1 SCS       0.056200
     14 H4          13.1170    21.6390    13.9180 h1         1 SCS       0.056200
     15 H5           8.1760    22.5340    13.8900 hc         1 SCS       0.038700
     16 H6           9.3630    22.7340    15.1940 hc         1 SCS       0.038700
     17 H7           8.5730    24.1610    14.4840 hc         1 SCS       0.038700
     18 H8           9.6950    23.6790    12.2770 h1         1 SCS       0.059200
     19 H9          10.5220    22.2800    13.0050 h1         1 SCS       0.059200
     20 H11         15.1160    20.8850    15.1430 h1         1 SCS       0.058700
@<TRIPOS>BOND
     1     1     2 1   
     2     1    11 1   
     3     1    12 1   
     4     2     3 1   
     5     2     5 1   
     6     2    20 1   
     7     3     4 1   
     8     3    10 1   
     9     5     6 1   
    10     5    13 1   
    11     5    14 1   
    12     6     7 1   
    13     7     9 1   
    14     8     9 1   
    15     8    15 1   
    16     8    16 1   
    17     8    17 1   
    18     9    18 1   
    19     9    19 1   
@<TRIPOS>SUBSTRUCTURE
     1 SCS         1 TEMP              0 ****  ****    0 ROOT
