@<TRIPOS>MOLECULE
SCS
   20    19     1     0     0
SMALL
bcc


@<TRIPOS>ATOM
      1 N           13.3920    20.5110    16.2240 n8         1 SCS      -0.903800
      2 CA          14.3260    21.4500    15.6210 c3         1 SCS       0.011500
      3 C           15.1130    22.3090    16.6570 c          1 SCS       0.917600
      4 O           14.8370    22.1360    17.8590 o          1 SCS      -0.822800
      5 CB          13.6590    22.3420    14.5810 c3         1 SCS       0.033700
      6 SG          12.4550    23.4520    15.4010 ss         1 SCS      -0.153100
      7 SD          11.5510    24.3590    13.8020 ss         1 SCS      -0.263100
      8 CE           9.1330    23.1000    14.4320 c3         1 SCS      -0.086100
      9 CZ          10.2100    23.2000    13.3740 c3         1 SCS       0.005700
     10 OXT         15.9610    23.0840    16.1780 o          1 SCS      -0.822800
     11 HN          13.4730    20.6190    17.2290 hn         1 SCS       0.339300
     12 H2          12.4370    20.7580    15.9960 hn         1 SCS       0.339300
     13 H3          14.4010    22.9470    14.0650 h1         1 SCS       0.056200
     14 H4          13.1220    21.7410    13.8440 h1         1 SCS       0.056200
     15 H5           8.3600    22.3970    14.1180 hc         1 SCS       0.038700
     16 H6           9.5420    22.7420    15.3770 hc         1 SCS       0.038700
     17 H7           8.6610    24.0660    14.6080 hc         1 SCS       0.038700
     18 H8           9.8090    23.5960    12.4380 h1         1 SCS       0.059200
     19 H9          10.6490    22.2270    13.1490 h1         1 SCS       0.059200
     20 H11         15.0900    20.8940    15.0590 h1         1 SCS       0.058700
@<TRIPOS>BOND
     1     1     2 1   
     2     1    11 1   
     3     1    12 1   
     4     2     3 1   
     5     2     5 1   
     6     2    20 1   
     7     3     4 1   
     8     3    10 1   
     9     5     6 1   
    10     5    13 1   
    11     5    14 1   
    12     6     7 1   
    13     7     9 1   
    14     8     9 1   
    15     8    15 1   
    16     8    16 1   
    17     8    17 1   
    18     9    18 1   
    19     9    19 1   
@<TRIPOS>SUBSTRUCTURE
     1 SCS         1 TEMP              0 ****  ****    0 ROOT
