@<TRIPOS>MOLECULE
SCT
   34    36     1     0     0
SMALL
No Charge or Current Charge


@<TRIPOS>ATOM
      1 O16          2.6210    -5.0670     1.9390 oh         1 SCT      -0.651000
      2 O18          3.9350    -1.6050     0.4670 oh         1 SCT      -0.653000
      3 O9           0.6630     2.1050     2.0640 o          1 SCT      -0.541000
      4 O7          -2.4320     1.8440     5.2950 o          1 SCT      -0.527000
      5 N8           0.1340    -0.0360     2.7840 n          1 SCT      -0.275000
      6 N5          -0.8800     1.8930     3.6730 ns         1 SCT      -0.469500
      7 C1           1.8910    -2.8970     1.0690 c5         1 SCT      -0.117700
      8 C10          3.1310    -2.0630     1.5570 c5         1 SCT       0.169300
      9 C14          2.5200    -0.8760     2.3750 c5         1 SCT      -0.055400
     10 C17          1.0740    -0.6910     1.8720 cx         1 SCT       0.044400
     11 C13          0.7090    -1.8980     1.0540 cx         1 SCT      -0.137700
     12 C12          1.5680    -4.0970     1.9930 c3         1 SCT       0.159600
     13 C11          0.0150     1.3720     2.7930 c          1 SCT       0.616000
     14 C15          0.9330    -0.5710     0.3640 cx         1 SCT      -0.072400
     15 C6          -1.6690     1.2360     4.5610 c          1 SCT       0.586200
     16 C4          -1.5050    -0.2350     4.5440 cc         1 SCT      -0.265400
     17 C2          -0.6130    -0.8150     3.6660 cd         1 SCT      -0.007400
     18 C3          -2.3530    -1.0120     5.5240 c3         1 SCT      -0.018900
     19 H16          2.5910    -5.4750     1.0450 ho         1 SCT       0.440000
     20 H18          4.3030    -2.4050     0.0330 ho         1 SCT       0.443000
     21 H1           2.0560    -3.3110     0.0670 hc         1 SCT       0.061700
     22 H10          3.7660    -2.6690     2.2190 h1         1 SCT       0.060700
     23 H141         2.5200    -1.1260     3.4420 hc         1 SCT       0.073700
     24 H142         3.1120     0.0400     2.2770 hc         1 SCT       0.073700
     25 H13         -0.3140    -2.2680     1.0760 hc         1 SCT       0.092700
     26 H121         0.6180    -4.5510     1.6750 h1         1 SCT       0.045200
     27 H122         1.4340    -3.7340     3.0210 h1         1 SCT       0.045200
     28 H151         1.8190    -0.4190    -0.2430 hc         1 SCT       0.095700
     29 H152         0.0550    -0.0540    -0.0150 hc         1 SCT       0.095700
     30 H2          -0.4270    -1.8830     3.5940 h4         1 SCT       0.204000
     31 H3C1        -2.1360    -0.7130     6.5570 hc         1 SCT       0.047033
     32 H3C2        -2.1680    -2.0900     5.4450 hc         1 SCT       0.047033
     33 H3C3        -3.4210    -0.8440     5.3390 hc         1 SCT       0.047033
     34 HN1         -0.9640     2.8960     3.6690 hn         1 SCT       0.344500
@<TRIPOS>BOND
     1     1    12 1   
     2     1    19 1   
     3     2     8 1   
     4     2    20 1   
     5     3    13 2   
     6     4    15 2   
     7     5    10 1   
     8     5    13 1   
     9     5    17 1   
    10     6    13 1   
    11     6    15 1   
    12     6    34 1   
    13     7     8 1   
    14     7    11 1   
    15     7    12 1   
    16     7    21 1   
    17     8     9 1   
    18     8    22 1   
    19     9    10 1   
    20     9    23 1   
    21     9    24 1   
    22    10    11 1   
    23    10    14 1   
    24    11    14 1   
    25    11    25 1   
    26    12    26 1   
    27    12    27 1   
    28    14    28 1   
    29    14    29 1   
    30    15    16 1   
    31    16    17 2   
    32    16    18 1   
    33    17    30 1   
    34    18    31 1   
    35    18    32 1   
    36    18    33 1   
@<TRIPOS>SUBSTRUCTURE
     1 SCT         1 TEMP              0 ****  ****    0 ROOT
