@<TRIPOS>MOLECULE
SCT
   34    36     1     0     0
SMALL
abcg2


@<TRIPOS>ATOM
      1 O16          2.5500    -4.9790     2.1570 oh         1 SCT      -0.651000
      2 O18          3.8030    -1.5000     0.4650 oh         1 SCT      -0.653000
      3 O9           0.8410     2.0240     2.0780 o          1 SCT      -0.541000
      4 O7          -2.3500     1.7870     5.2780 o          1 SCT      -0.527000
      5 N8           0.1560    -0.0450     2.7420 n          1 SCT      -0.275000
      6 N5          -0.7770     1.8560     3.6570 ns         1 SCT      -0.469500
      7 C1           1.8560    -2.8770     1.1000 c5         1 SCT      -0.117700
      8 C10          3.0800    -2.0490     1.5500 c5         1 SCT       0.169300
      9 C14          2.4990    -0.9010     2.3820 c5         1 SCT      -0.055400
     10 C17          1.0930    -0.6870     1.8630 cx         1 SCT       0.044400
     11 C13          0.7030    -1.8960     1.0610 cx         1 SCT      -0.137700
     12 C12          1.5410    -3.9990     2.0870 c3         1 SCT       0.159600
     13 C11          0.1290     1.3290     2.7710 c          1 SCT       0.616000
     14 C15          0.8930    -0.5690     0.3910 cx         1 SCT      -0.072400
     15 C6          -1.6010     1.1770     4.5360 c          1 SCT       0.586200
     16 C4          -1.4780    -0.2660     4.4830 cc         1 SCT      -0.265400
     17 C2          -0.6120    -0.7890     3.5970 cd         1 SCT      -0.007400
     18 C3          -2.3120    -1.0980     5.4010 c3         1 SCT      -0.018900
     19 H16          2.6240    -5.3930     1.2920 ho         1 SCT       0.440000
     20 H18          4.0650    -2.2220    -0.1150 ho         1 SCT       0.443000
     21 H1           2.0350    -3.3240     0.1140 hc         1 SCT       0.061700
     22 H10          3.7470    -2.6640     2.1650 h1         1 SCT       0.060700
     23 H141         2.4460    -1.2010     3.4320 hc         1 SCT       0.073700
     24 H142         3.1250    -0.0080     2.3340 hc         1 SCT       0.073700
     25 H13         -0.3090    -2.2850     1.1040 hc         1 SCT       0.092700
     26 H121         0.5700    -4.4400     1.8270 h1         1 SCT       0.045200
     27 H122         1.4380    -3.5900     3.0970 h1         1 SCT       0.045200
     28 H151         1.7480    -0.3870    -0.2440 hc         1 SCT       0.095700
     29 H152        -0.0160    -0.0760     0.0690 hc         1 SCT       0.095700
     30 H2          -0.4810    -1.8590     3.5080 h4         1 SCT       0.204000
     31 H3C1        -2.1050    -0.8680     6.4460 hc         1 SCT       0.047033
     32 H3C2        -2.1150    -2.1580     5.2480 hc         1 SCT       0.047033
     33 H3C3        -3.3770    -0.9280     5.2370 hc         1 SCT       0.047033
     34 HN1         -0.8230     2.8680     3.6790 hn         1 SCT       0.344500
@<TRIPOS>BOND
     1     1    12 1   
     2     1    19 1   
     3     2     8 1   
     4     2    20 1   
     5     3    13 2   
     6     4    15 2   
     7     5    10 1   
     8     5    13 1   
     9     5    17 1   
    10     6    13 1   
    11     6    15 1   
    12     6    34 1   
    13     7     8 1   
    14     7    11 1   
    15     7    12 1   
    16     7    21 1   
    17     8     9 1   
    18     8    22 1   
    19     9    10 1   
    20     9    23 1   
    21     9    24 1   
    22    10    11 1   
    23    10    14 1   
    24    11    14 1   
    25    11    25 1   
    26    12    26 1   
    27    12    27 1   
    28    14    28 1   
    29    14    29 1   
    30    15    16 1   
    31    16    17 2   
    32    16    18 1   
    33    17    30 1   
    34    18    31 1   
    35    18    32 1   
    36    18    33 1   
@<TRIPOS>SUBSTRUCTURE
     1 SCT         1 TEMP              0 ****  ****    0 ROOT
