@<TRIPOS>MOLECULE
SCU
   31    30     1     0     0
SMALL
bcc


@<TRIPOS>ATOM
      1 O13          1.2570    -1.9230    -0.3420 o          1 SCU      -0.488000
      2 C12          1.0650    -0.8090     0.0670 c          1 SCU       0.641100
      3 C11          2.1100     0.2610     0.2260 c3         1 SCU      -0.123400
      4 C6           3.4950    -0.2060    -0.2010 c3         1 SCU      -0.199400
      5 C5           4.4780     0.9230    -0.1540 c          1 SCU       0.566900
      6 O4           5.5780     0.8620     0.3350 o          1 SCU      -0.475100
      7 O14         -0.1350    -0.3650     0.4430 os         1 SCU      -0.456900
      8 C15         -1.2380    -1.2590     0.3290 c3         1 SCU       0.122400
      9 C16         -2.4990    -0.5620     0.7760 c3         1 SCU       0.123800
     10 N17         -3.0800     0.4830    -0.1410 n4         1 SCU      -0.608800
     11 C20         -3.3610    -0.0760    -1.4920 c3         1 SCU       0.105433
     12 C19         -2.1920     1.6750    -0.2780 c3         1 SCU       0.105433
     13 C18         -4.3690     0.9270     0.4690 c3         1 SCU       0.105433
     14 H111         1.7960     1.1330    -0.3560 hc         1 SCU       0.076700
     15 H112         2.1130     0.5870     1.2690 hc         1 SCU       0.076700
     16 H61          3.8510    -1.0380     0.4070 hc         1 SCU       0.089700
     17 H62          3.4610    -0.5440    -1.2430 hc         1 SCU       0.089700
     18 H5           4.1270     1.8550    -0.6360 h4         1 SCU      -0.017800
     19 H151        -1.1080    -2.1080     1.0030 h1         1 SCU       0.086200
     20 H152        -1.3180    -1.6600    -0.6830 h1         1 SCU       0.086200
     21 H161        -2.3540    -0.0860     1.7460 hx         1 SCU       0.104700
     22 H162        -3.2700    -1.3240     0.8900 hx         1 SCU       0.104700
     23 H201        -2.4330    -0.3350    -1.9900 hx         1 SCU       0.098367
     24 H202        -3.9890    -0.9580    -1.3950 hx         1 SCU       0.098367
     25 H203        -3.8780     0.6790    -2.0780 hx         1 SCU       0.098367
     26 H191        -2.7320     2.4380    -0.8330 hx         1 SCU       0.098367
     27 H192        -1.9380     2.0490     0.7090 hx         1 SCU       0.098367
     28 H193        -1.2920     1.4080    -0.8190 hx         1 SCU       0.098367
     29 H181        -5.0440     0.0790     0.5370 hx         1 SCU       0.098367
     30 H182        -4.1760     1.3240     1.4620 hx         1 SCU       0.098367
     31 H183        -4.8080     1.6980    -0.1570 hx         1 SCU       0.098367
@<TRIPOS>BOND
     1     1     2 2   
     2     2     3 1   
     3     2     7 1   
     4     3     4 1   
     5     3    14 1   
     6     3    15 1   
     7     4     5 1   
     8     4    16 1   
     9     4    17 1   
    10     5     6 2   
    11     5    18 1   
    12     7     8 1   
    13     8     9 1   
    14     8    19 1   
    15     8    20 1   
    16     9    10 1   
    17     9    21 1   
    18     9    22 1   
    19    10    11 1   
    20    10    12 1   
    21    10    13 1   
    22    11    23 1   
    23    11    24 1   
    24    11    25 1   
    25    12    26 1   
    26    12    27 1   
    27    12    28 1   
    28    13    29 1   
    29    13    30 1   
    30    13    31 1   
@<TRIPOS>SUBSTRUCTURE
     1 SCU         1 TEMP              0 ****  ****    0 ROOT
