@<TRIPOS>MOLECULE
SCU
   31    30     1     0     0
SMALL
No Charge or Current Charge


@<TRIPOS>ATOM
      1 O13          1.2870    -2.3650     0.6400 o          1 SCU      -0.439000
      2 C12          1.1050    -1.1630     0.7700 c          1 SCU       0.592100
      3 C11          2.2360    -0.1330     0.8500 c3         1 SCU      -0.123400
      4 C6           2.7000     0.3240    -0.5630 c3         1 SCU      -0.199400
      5 C5           3.8100     1.3750    -0.4860 c          1 SCU       0.566900
      6 O4           4.9900     1.0900    -0.3280 o          1 SCU      -0.475100
      7 O14         -0.1260    -0.5670     0.8440 os         1 SCU      -0.480100
      8 C15         -1.2940    -1.4090     0.7620 c3         1 SCU       0.145600
      9 C16         -2.5560    -0.5160     0.8400 c3         1 SCU       0.095600
     10 N17         -2.8600     0.4690    -0.3160 n4         1 SCU      -0.496000
     11 C20         -2.9440    -0.2810    -1.6560 c3         1 SCU       0.077233
     12 C19         -1.7780     1.5560    -0.4070 c3         1 SCU       0.077233
     13 C18         -4.2110     1.1450    -0.0430 c3         1 SCU       0.077233
     14 H111         1.8680     0.7540     1.3800 hc         1 SCU       0.076700
     15 H112         3.0850    -0.5760     1.3840 hc         1 SCU       0.076700
     16 H61          3.0690    -0.5460    -1.1210 hc         1 SCU       0.089700
     17 H62          1.8380     0.7720    -1.0720 hc         1 SCU       0.089700
     18 H5           3.4800     2.4320    -0.5830 h4         1 SCU      -0.017800
     19 H151        -1.3130    -2.1220     1.5970 h1         1 SCU       0.086200
     20 H152        -1.3060    -1.9840    -0.1730 h1         1 SCU       0.086200
     21 H161        -2.4980     0.0680     1.7610 hx         1 SCU       0.104700
     22 H162        -3.4190    -1.1790     0.9270 hx         1 SCU       0.104700
     23 H201        -1.9760    -0.7350    -1.8780 hx         1 SCU       0.098367
     24 H202        -3.7090    -1.0560    -1.5890 hx         1 SCU       0.098367
     25 H203        -3.2050     0.4250    -2.4470 hx         1 SCU       0.098367
     26 H191        -2.0480     2.2710    -1.1870 hx         1 SCU       0.098367
     27 H192        -1.7010     2.0700     0.5530 hx         1 SCU       0.098367
     28 H193        -0.8200     1.0940    -0.6520 hx         1 SCU       0.098367
     29 H181        -4.9920     0.3850     0.0130 hx         1 SCU       0.098367
     30 H182        -4.1590     1.6870     0.9040 hx         1 SCU       0.098367
     31 H183        -4.4360     1.8430    -0.8520 hx         1 SCU       0.098367
@<TRIPOS>BOND
     1     1     2 2   
     2     2     3 1   
     3     2     7 1   
     4     3     4 1   
     5     3    14 1   
     6     3    15 1   
     7     4     5 1   
     8     4    16 1   
     9     4    17 1   
    10     5     6 2   
    11     5    18 1   
    12     7     8 1   
    13     8     9 1   
    14     8    19 1   
    15     8    20 1   
    16     9    10 1   
    17     9    21 1   
    18     9    22 1   
    19    10    11 1   
    20    10    12 1   
    21    10    13 1   
    22    11    23 1   
    23    11    24 1   
    24    11    25 1   
    25    12    26 1   
    26    12    27 1   
    27    12    28 1   
    28    13    29 1   
    29    13    30 1   
    30    13    31 1   
@<TRIPOS>SUBSTRUCTURE
     1 SCU         1 TEMP              0 ****  ****    0 ROOT
