@<TRIPOS>MOLECULE
SCV
   45    44     1     0     0
SMALL
No Charge or Current Charge


@<TRIPOS>ATOM
      1 C1          -8.8600     6.3030    -4.8260 c          1 SCV       0.691000
      2 C2          -8.9930     5.3480    -6.0870 c3         1 SCV       0.015500
      3 C3          -8.2660     3.9950    -5.8500 c3         1 SCV      -0.041400
      4 C4          -6.7260     4.0890    -5.7000 c3         1 SCV      -0.065400
      5 C7          -2.6060     2.7180    -3.6610 c3         1 SCV      -0.038300
      6 C10         -0.5550    -0.1610    -2.2780 c3         1 SCV       0.034300
      7 C12         -0.1200    -0.2490    -0.7840 c3         1 SCV      -0.044700
      8 C13         -1.3390    -0.3200     0.1670 c3         1 SCV      -0.079600
      9 C5          -6.0590     2.7120    -5.4640 c3         1 SCV      -0.153400
     10 N1          -8.6160     5.9340    -7.4260 n8         1 SCV      -0.995200
     11 O1          -8.0120     7.1870    -4.8470 o          1 SCV      -0.740500
     12 O2          -9.6960     6.2070    -3.9380 o          1 SCV      -0.740500
     13 O5          -1.2520     1.1050    -2.4530 os         1 SCV      -0.420100
     14 C11          0.6570    -0.3490    -3.2610 c          1 SCV       0.717000
     15 O6           1.1540    -1.4650    -3.3480 o          1 SCV      -0.724500
     16 O7           1.0360     0.5970    -3.9410 o          1 SCV      -0.724500
     17 C6          -4.5380     2.8380    -5.3190 c          1 SCV       0.606100
     18 O3          -3.8000     3.0520    -6.2700 o          1 SCV      -0.601100
     19 N2          -4.0550     2.6630    -4.0420 ns         1 SCV      -0.498900
     20 C8          -1.9840     1.3110    -3.5970 c          1 SCV       0.621100
     21 C9          -2.4030     3.4600    -2.3300 c          1 SCV       0.645700
     22 O8          -3.2680     3.5430    -1.4660 o          1 SCV      -0.515100
     23 S           -0.9810     4.5770    -2.3230 sh         1 SCV      -0.334400
     24 HC2        -10.0630     5.1090    -6.1640 h1         1 SCV       0.028700
     25 HC31        -8.5020     3.3140    -6.6780 hc         1 SCV       0.022700
     26 HC32        -8.6810     3.5320    -4.9460 hc         1 SCV       0.022700
     27 HC41        -6.2970     4.5430    -6.6020 hc         1 SCV       0.062700
     28 HC42        -6.4790     4.7520    -4.8620 hc         1 SCV       0.062700
     29 HC7         -2.0450     3.2720    -4.4220 h1         1 SCV       0.098700
     30 HC01        -1.2430    -0.9940    -2.4710 h1         1 SCV       0.048700
     31 H131        -2.0000    -1.1490    -0.1130 hc         1 SCV       0.024700
     32 H132        -1.9200     0.6090     0.1350 hc         1 SCV       0.024700
     33 H133        -1.0130    -0.4830     1.2010 hc         1 SCV       0.024700
     34 HC51        -6.4870     2.2700    -4.5560 hc         1 SCV       0.049700
     35 HC52        -6.2760     2.0690    -6.3250 hc         1 SCV       0.049700
     36 HN11        -7.6660     6.3170    -7.3460 hn         1 SCV       0.379000
     37 HN12        -9.1850     6.7730    -7.5910 hn         1 SCV       0.379000
     38 H141         0.3740     1.8650    -0.4410 hc         1 SCV       0.024700
     39 H142         1.1790     0.7420     0.6730 hc         1 SCV       0.024700
     40 H143         1.7480     0.8840    -0.9980 hc         1 SCV       0.024700
     41 HN2         -4.7440     2.4940    -3.3150 hn         1 SCV       0.328500
     42 HS1         -1.4420     5.2360    -1.2370 hs         1 SCV       0.212800
     43 O4          -2.1570     0.4590    -4.4620 o          1 SCV      -0.489000
     44 C14          0.8530     0.8810    -0.3650 c3         1 SCV      -0.079600
     45 HC21         0.4210    -1.1960    -0.6650 hc         1 SCV       0.059700
@<TRIPOS>BOND
     1     1     2 1   
     2     1    11 1   
     3     1    12 1   
     4     2     3 1   
     5     2    10 1   
     6     2    24 1   
     7     3     4 1   
     8     3    25 1   
     9     3    26 1   
    10     4     9 1   
    11     4    27 1   
    12     4    28 1   
    13     5    19 1   
    14     5    20 1   
    15     5    21 1   
    16     5    29 1   
    17     6     7 1   
    18     6    13 1   
    19     6    14 1   
    20     6    30 1   
    21     7     8 1   
    22     7    44 1   
    23     7    45 1   
    24     8    31 1   
    25     8    32 1   
    26     8    33 1   
    27     9    17 1   
    28     9    34 1   
    29     9    35 1   
    30    10    36 1   
    31    10    37 1   
    32    13    20 1   
    33    14    15 1   
    34    14    16 1   
    35    17    18 2   
    36    17    19 1   
    37    19    41 1   
    38    20    43 2   
    39    21    22 2   
    40    21    23 1   
    41    23    42 1   
    42    38    44 1   
    43    39    44 1   
    44    40    44 1   
@<TRIPOS>SUBSTRUCTURE
     1 SCV         1 TEMP              0 ****  ****    0 ROOT
