@<TRIPOS>MOLECULE
SCV
   45    44     1     0     0
SMALL
bcc


@<TRIPOS>ATOM
      1 C1          -8.6880     5.1320    -5.6440 c          1 SCV       0.901600
      2 C2          -8.6320     3.7780    -4.8960 c3         1 SCV       0.015500
      3 C3          -7.4470     3.7770    -3.9240 c3         1 SCV      -0.041400
      4 C4          -6.0840     3.8220    -4.6060 c3         1 SCV      -0.065400
      5 C7          -1.2200     4.0470    -3.7970 c3         1 SCV      -0.038300
      6 C10         -1.1090     0.4460    -3.0670 c3         1 SCV       0.011100
      7 C12         -2.2520    -0.3090    -2.3950 c3         1 SCV      -0.044700
      8 C13         -3.4670    -0.4140    -3.3130 c3         1 SCV      -0.079600
      9 C5          -4.9540     3.8120    -3.5880 c3         1 SCV      -0.153400
     10 N1          -8.5890     2.5940    -5.7460 n8         1 SCV      -0.884800
     11 O1          -8.4210     5.1320    -6.8630 o          1 SCV      -0.845800
     12 O2          -8.9770     6.1280    -4.9490 o          1 SCV      -0.845800
     13 O5          -1.5560     1.7890    -3.2670 os         1 SCV      -0.396900
     14 C11          0.1910     0.4520    -2.2290 c          1 SCV       0.927600
     15 O6           0.6800    -0.6770    -2.0340 o          1 SCV      -0.829800
     16 O7           0.6160     1.5500    -1.8390 o          1 SCV      -0.829800
     17 C6          -3.5770     3.7720    -4.2030 c          1 SCV       0.673100
     18 O3          -3.3480     3.3370    -5.3210 o          1 SCV      -0.601100
     19 N2          -2.5830     4.2310    -3.4120 ns         1 SCV      -0.565900
     20 C8          -0.8450     2.5780    -4.0260 c          1 SCV       0.670100
     21 C9          -0.3070     4.5740    -2.6910 c          1 SCV       0.645700
     22 O8          -0.7000     4.8200    -1.5850 o          1 SCV      -0.515100
     23 S            1.3500     4.8210    -3.2370 sh         1 SCV      -0.334400
     24 HC2         -9.5380     3.7060    -4.2830 h1         1 SCV       0.028700
     25 HC31        -7.5020     2.8780    -3.3020 hc         1 SCV       0.022700
     26 HC32        -7.5480     4.6300    -3.2480 hc         1 SCV       0.022700
     27 HC41        -5.9760     2.9660    -5.2750 hc         1 SCV       0.062700
     28 HC42        -6.0010     4.7170    -5.2300 hc         1 SCV       0.062700
     29 HC7         -0.9930     4.5900    -4.7200 h1         1 SCV       0.098700
     30 HC01        -0.9050    -0.0210    -4.0380 h1         1 SCV       0.048700
     31 H131        -3.2050    -0.8690    -4.2700 hc         1 SCV       0.024700
     32 H132        -3.9040     0.5650    -3.5210 hc         1 SCV       0.024700
     33 H133        -4.2450    -1.0280    -2.8570 hc         1 SCV       0.024700
     34 HC51        -5.0370     4.6710    -2.9160 hc         1 SCV       0.049700
     35 HC52        -5.0400     2.9260    -2.9460 hc         1 SCV       0.049700
     36 HN11        -7.9410     2.7810    -6.5030 hn         1 SCV       0.323800
     37 HN12        -9.4840     2.5040    -6.2120 hn         1 SCV       0.323800
     38 H141        -3.0090     1.3020    -1.1370 hc         1 SCV       0.024700
     39 H142        -3.4250    -0.3150    -0.5810 hc         1 SCV       0.024700
     40 H143        -1.7940     0.2960    -0.3460 hc         1 SCV       0.024700
     41 HN2         -2.7820     4.4850    -2.4560 hn         1 SCV       0.328500
     42 HS1          1.8310     5.2110    -2.0500 hs         1 SCV       0.212800
     43 O4           0.0130     2.2490    -4.8030 o          1 SCV      -0.538000
     44 C14         -2.6360     0.2810    -1.0400 c3         1 SCV      -0.079600
     45 HC21        -1.8680    -1.3200    -2.2300 hc         1 SCV       0.059700
@<TRIPOS>BOND
     1     1     2 1   
     2     1    11 1   
     3     1    12 1   
     4     2     3 1   
     5     2    10 1   
     6     2    24 1   
     7     3     4 1   
     8     3    25 1   
     9     3    26 1   
    10     4     9 1   
    11     4    27 1   
    12     4    28 1   
    13     5    19 1   
    14     5    20 1   
    15     5    21 1   
    16     5    29 1   
    17     6     7 1   
    18     6    13 1   
    19     6    14 1   
    20     6    30 1   
    21     7     8 1   
    22     7    44 1   
    23     7    45 1   
    24     8    31 1   
    25     8    32 1   
    26     8    33 1   
    27     9    17 1   
    28     9    34 1   
    29     9    35 1   
    30    10    36 1   
    31    10    37 1   
    32    13    20 1   
    33    14    15 1   
    34    14    16 1   
    35    17    18 2   
    36    17    19 1   
    37    19    41 1   
    38    20    43 2   
    39    21    22 2   
    40    21    23 1   
    41    23    42 1   
    42    38    44 1   
    43    39    44 1   
    44    40    44 1   
@<TRIPOS>SUBSTRUCTURE
     1 SCV         1 TEMP              0 ****  ****    0 ROOT
