@<TRIPOS>MOLECULE
SCW
   38    41     1     0     0
SMALL
bcc


@<TRIPOS>ATOM
      1 C01          1.9560     2.0920     0.1180 cc         1 SCW      -0.171400
      2 N02          1.3400     0.8670     0.0850 na         1 SCW       0.078700
      3 C03         -0.0060     1.1310     0.0690 cc         1 SCW      -0.059300
      4 N04         -0.2550     2.4270     0.0920 nd         1 SCW      -0.299600
      5 C05          0.9540     3.0270     0.1220 cd         1 SCW       0.057600
      6 C06          1.8540    -0.4040     0.0560 cc         1 SCW      -0.127300
      7 C07          0.9860    -1.4520     0.0380 cd         1 SCW       0.000000
      8 C08         -0.4190    -1.2250     0.0460 cd         1 SCW      -0.236000
      9 C09         -0.9320     0.0490     0.0460 cc         1 SCW       0.220600
     10 N10         -2.2540     0.3710     0.0140 nu         1 SCW      -0.744600
     11 C11          1.5110    -2.8320     0.0040 ca         1 SCW      -0.037000
     12 C12         -3.2730    -0.6320     0.2200 c3         1 SCW       0.272100
     13 C13         -4.6280    -0.0180     0.0490 ca         1 SCW      -0.348900
     14 C14         -5.1120     0.3560    -1.1980 ca         1 SCW       0.452700
     15 N15         -6.3010     0.9200    -1.3610 nb         1 SCW      -0.697000
     16 C16         -7.0180     1.1150    -0.2630 ca         1 SCW       0.650900
     17 N17         -6.6630     0.8000     0.9720 nb         1 SCW      -0.697000
     18 C18         -5.4700     0.2380     1.1200 ca         1 SCW       0.452700
     19 C19          2.6430    -3.1880     0.7380 ca         1 SCW      -0.114500
     20 C20          3.1440    -4.4810     0.6860 ca         1 SCW      -0.128500
     21 C21          2.5160    -5.4430    -0.0930 ca         1 SCW      -0.120000
     22 C22          1.3830    -5.1020    -0.8210 ca         1 SCW      -0.128500
     23 C23          0.8850    -3.8090    -0.7720 ca         1 SCW      -0.114500
     24 BR24         3.7890     2.3050     0.1640 br         1 SCW      -0.003700
     25 H05          1.0700     4.0990     0.1470 h4         1 SCW       0.188000
     26 H06          2.9280    -0.5040     0.0250 h4         1 SCW       0.178000
     27 H08         -1.0810    -2.0800     0.0750 ha         1 SCW       0.145000
     28 HN10        -2.4780     1.3050     0.3240 hn         1 SCW       0.450800
     29 H121        -3.1430    -1.4290    -0.5160 h1         1 SCW       0.050200
     30 H122        -3.1980    -1.0990     1.2100 h1         1 SCW       0.050200
     31 H14         -4.5190     0.1900    -2.0920 h4         1 SCW       0.030100
     32 H16         -7.9900     1.5770    -0.3910 h5         1 SCW       0.053100
     33 H18         -5.1690    -0.0210     2.1300 h4         1 SCW       0.030100
     34 H19          3.1270    -2.4560     1.3730 ha         1 SCW       0.133500
     35 H20          4.0220    -4.7380     1.2640 ha         1 SCW       0.133000
     36 H21          2.9040    -6.4530    -0.1310 ha         1 SCW       0.133000
     37 H22          0.8890    -5.8420    -1.4370 ha         1 SCW       0.133000
     38 H23          0.0110    -3.5550    -1.3590 ha         1 SCW       0.133500
@<TRIPOS>BOND
     1     1     2 1   
     2     1     5 2   
     3     1    24 1   
     4     2     3 1   
     5     2     6 1   
     6     3     4 2   
     7     3     9 1   
     8     4     5 1   
     9     5    25 1   
    10     6     7 2   
    11     6    26 1   
    12     7     8 1   
    13     7    11 1   
    14     8     9 2   
    15     8    27 1   
    16     9    10 1   
    17    10    12 1   
    18    10    28 1   
    19    11    19 ar  
    20    11    23 ar  
    21    12    13 1   
    22    12    29 1   
    23    12    30 1   
    24    13    14 ar  
    25    13    18 ar  
    26    14    15 ar  
    27    14    31 1   
    28    15    16 ar  
    29    16    17 ar  
    30    16    32 1   
    31    17    18 ar  
    32    18    33 1   
    33    19    20 ar  
    34    19    34 1   
    35    20    21 ar  
    36    20    35 1   
    37    21    22 ar  
    38    21    36 1   
    39    22    23 ar  
    40    22    37 1   
    41    23    38 1   
@<TRIPOS>SUBSTRUCTURE
     1 SCW         1 TEMP              0 ****  ****    0 ROOT
