@<TRIPOS>MOLECULE
SCW
   38    41     1     0     0
SMALL
No Charge or Current Charge


@<TRIPOS>ATOM
      1 C01          1.9210     2.0420     0.2810 cc         1 SCW      -0.171400
      2 N02          1.2430     0.8600     0.1850 na         1 SCW       0.180100
      3 C03         -0.0980     1.0620     0.1440 cc         1 SCW      -0.110000
      4 N04         -0.3390     2.3670     0.2060 nd         1 SCW      -0.299600
      5 C05          0.9110     2.9820     0.2900 cd         1 SCW       0.007600
      6 C06          1.8660    -0.3890     0.1530 cc         1 SCW      -0.160000
      7 C07          1.0160    -1.4980     0.0320 cd         1 SCW       0.000000
      8 C08         -0.4280    -1.3080     0.0080 cd         1 SCW      -0.218000
      9 C09         -0.9770    -0.0500     0.0570 cc         1 SCW       0.359000
     10 N10         -2.3240     0.2310     0.0360 nu         1 SCW      -0.938200
     11 C11          1.5980    -2.8730     0.0120 ca         1 SCW      -0.037000
     12 C12         -3.4280    -0.7200    -0.0740 c3         1 SCW       0.272100
     13 C13         -4.7330     0.0440    -0.1010 ca         1 SCW      -0.218300
     14 C14         -5.3030     0.4780    -1.3130 ca         1 SCW       0.124400
     15 N15         -6.4690     1.1560    -1.3430 nb         1 SCW      -0.171000
     16 C16         -7.0570     1.3950    -0.1510 ca         1 SCW       0.124900
     17 N17         -6.5970     1.0230     1.0640 nb         1 SCW      -0.171000
     18 C18         -5.4310     0.3450     1.0840 ca         1 SCW       0.124400
     19 C19          2.9260    -3.1140     0.4450 ca         1 SCW      -0.096500
     20 C20          3.4740    -4.4090     0.4250 ca         1 SCW      -0.110500
     21 C21          2.7100    -5.4920    -0.0310 ca         1 SCW      -0.102000
     22 C22          1.3960    -5.2760    -0.4690 ca         1 SCW      -0.110500
     23 C23          0.8460    -3.9830    -0.4480 ca         1 SCW      -0.096500
     24 Br24         3.7900     2.3140     0.3750 br         1 SCW      -0.003700
     25 H05          1.0110     4.0630     0.3540 h4         1 SCW       0.238000
     26 H06          2.9440    -0.4020     0.1870 h4         1 SCW       0.160000
     27 H08         -1.0990    -2.1530    -0.0290 ha         1 SCW       0.127000
     28 HN10        -2.5490     1.2250     0.0760 hn         1 SCW       0.506000
     29 H121        -3.3300    -1.3160    -0.9920 h1         1 SCW       0.050200
     30 H122        -3.4230    -1.4120     0.7800 h1         1 SCW       0.050200
     31 H14         -4.8240     0.2820    -2.2720 h4         1 SCW       0.030100
     32 H16         -7.9980     1.9420    -0.1710 h5         1 SCW       0.053100
     33 H18         -5.0550     0.0430     2.0600 h4         1 SCW       0.030100
     34 H19          3.5480    -2.3130     0.8300 ha         1 SCW       0.115500
     35 H20          4.4930    -4.5720     0.7700 ha         1 SCW       0.115000
     36 H21          3.1350    -6.4930    -0.0470 ha         1 SCW       0.115000
     37 H22          0.8020    -6.1120    -0.8320 ha         1 SCW       0.115000
     38 H23         -0.1640    -3.8610    -0.8260 ha         1 SCW       0.115500
@<TRIPOS>BOND
     1     1     2 1   
     2     1     5 2   
     3     1    24 1   
     4     2     3 1   
     5     2     6 1   
     6     3     4 2   
     7     3     9 1   
     8     4     5 1   
     9     5    25 1   
    10     6     7 2   
    11     6    26 1   
    12     7     8 1   
    13     7    11 1   
    14     8     9 2   
    15     8    27 1   
    16     9    10 1   
    17    10    12 1   
    18    10    28 1   
    19    11    19 ar  
    20    11    23 ar  
    21    12    13 1   
    22    12    29 1   
    23    12    30 1   
    24    13    14 ar  
    25    13    18 ar  
    26    14    15 ar  
    27    14    31 1   
    28    15    16 ar  
    29    16    17 ar  
    30    16    32 1   
    31    17    18 ar  
    32    18    33 1   
    33    19    20 ar  
    34    19    34 1   
    35    20    21 ar  
    36    20    35 1   
    37    21    22 ar  
    38    21    36 1   
    39    22    23 ar  
    40    22    37 1   
    41    23    38 1   
@<TRIPOS>SUBSTRUCTURE
     1 SCW         1 TEMP              0 ****  ****    0 ROOT
