@<TRIPOS>MOLECULE
SCX
   45    48     1     0     0
SMALL
No Charge or Current Charge


@<TRIPOS>ATOM
      1 C01          1.7500     3.1300     0.0590 cc         1 SCX      -0.289800
      2 C02          1.5230     1.7920    -0.0060 cd         1 SCX       0.418500
      3 N03          0.1620     1.6550    -0.0570 na         1 SCX       0.071900
      4 N04         -0.5690     2.8400    -0.0290 nd         1 SCX      -0.617100
      5 C05          0.4450     3.7020     0.0410 cc         1 SCX       0.404500
      6 N06          2.5250     0.8490    -0.0080 nd         1 SCX      -0.670000
      7 C07          1.9950    -0.3730    -0.0930 cc         1 SCX       0.487500
      8 C08          0.5670    -0.6310    -0.1360 cc         1 SCX      -0.326000
      9 C09         -0.3790     0.3730    -0.1240 cd         1 SCX       0.404000
     10 N10         -1.7350     0.1760    -0.1820 nu         1 SCX      -0.960200
     11 C11          2.9390    -1.5050    -0.0280 ca         1 SCX      -0.234500
     12 C12         -2.4510    -1.0900    -0.1040 c3         1 SCX       0.306100
     13 C13         -3.9240    -0.7820    -0.0000 ca         1 SCX      -0.308300
     14 C14         -4.7280    -0.6580    -1.1480 ca         1 SCX       0.178400
     15 N15         -6.0460    -0.3910    -1.0570 nb         1 SCX      -0.246500
     16 C16         -6.5360    -0.2550     0.1840 ca         1 SCX       0.389900
     17 N17         -5.8690    -0.3530     1.3440 nb         1 SCX      -0.246500
     18 C18         -4.5510    -0.6210     1.2480 ca         1 SCX       0.178400
     19 C19          2.6420    -2.6750     0.7160 ca         1 SCX       0.225000
     20 C20          3.5590    -3.7350     0.8060 ca         1 SCX      -0.177500
     21 C21          4.8030    -3.6550     0.1700 ca         1 SCX      -0.049000
     22 C22          5.1300    -2.4980    -0.5460 ca         1 SCX      -0.177500
     23 C23          4.2200    -1.4320    -0.6360 ca         1 SCX       0.225000
     24 C24          3.0360     3.9120     0.1390 c3         1 SCX       0.016800
     25 N25         -7.8620     0.0160     0.2780 nv         1 SCX      -1.056900
     26 C26          3.4860     4.4440    -1.2330 c3         1 SCX      -0.088100
     27 F27          1.5040    -2.7820     1.4380 f          1 SCX      -0.163500
     28 F28          4.5830    -0.3720    -1.3960 f          1 SCX      -0.163500
     29 H05          0.2100     4.7580     0.0790 h4         1 SCX       0.043800
     30 H08          0.2350    -1.6550    -0.2260 ha         1 SCX       0.139000
     31 HN10        -2.2800     1.0390    -0.1300 hn         1 SCX       0.529000
     32 H121        -2.2560    -1.6980    -0.9990 h1         1 SCX       0.054200
     33 H122        -2.1250    -1.6640     0.7750 h1         1 SCX       0.054200
     34 H14         -4.3170    -0.7730    -2.1500 h4         1 SCX       0.026100
     35 H18         -3.9970    -0.7050     2.1820 h4         1 SCX       0.026100
     36 H20          3.3050    -4.6160     1.3900 ha         1 SCX       0.138500
     37 H21          5.5130    -4.4780     0.2420 ha         1 SCX       0.123000
     38 H22          6.0940    -2.4240    -1.0440 ha         1 SCX       0.138500
     39 H241         2.9130     4.7580     0.8260 hc         1 SCX       0.043200
     40 H242         3.8340     3.2870     0.5590 hc         1 SCX       0.043200
     41 H251        -8.3540     0.3190    -0.5600 hn         1 SCX       0.503500
     42 H252        -8.2310     0.3470     1.1670 hn         1 SCX       0.503500
     43 H261         4.4230     5.0050    -1.1380 hc         1 SCX       0.034700
     44 H262         3.6510     3.6150    -1.9320 hc         1 SCX       0.034700
     45 H263         2.7260     5.1100    -1.6590 hc         1 SCX       0.034700
@<TRIPOS>BOND
     1     1     2 2   
     2     1     5 1   
     3     1    24 1   
     4     2     3 1   
     5     2     6 1   
     6     3     4 1   
     7     3     9 1   
     8     4     5 2   
     9     5    29 1   
    10     6     7 2   
    11     7     8 1   
    12     7    11 1   
    13     8     9 2   
    14     8    30 1   
    15     9    10 1   
    16    10    12 1   
    17    10    31 1   
    18    11    19 ar  
    19    11    23 ar  
    20    12    13 1   
    21    12    32 1   
    22    12    33 1   
    23    13    14 ar  
    24    13    18 ar  
    25    14    15 ar  
    26    14    34 1   
    27    15    16 ar  
    28    16    17 ar  
    29    16    25 1   
    30    17    18 ar  
    31    18    35 1   
    32    19    20 ar  
    33    19    27 1   
    34    20    21 ar  
    35    20    36 1   
    36    21    22 ar  
    37    21    37 1   
    38    22    23 ar  
    39    22    38 1   
    40    23    28 1   
    41    24    26 1   
    42    24    39 1   
    43    24    40 1   
    44    25    41 1   
    45    25    42 1   
    46    26    43 1   
    47    26    44 1   
    48    26    45 1   
@<TRIPOS>SUBSTRUCTURE
     1 SCX         1 TEMP              0 ****  ****    0 ROOT
