@<TRIPOS>MOLECULE
SCX
   45    48     1     0     0
SMALL
bcc


@<TRIPOS>ATOM
      1 C01          1.6830     3.2710     0.2120 cc         1 SCX      -0.289800
      2 C02          1.5240     1.8910     0.1560 cd         1 SCX       0.418500
      3 N03          0.1610     1.6760     0.1010 na         1 SCX       0.021200
      4 N04         -0.5480     2.8060     0.1190 nd         1 SCX      -0.617100
      5 C05          0.3740     3.7590     0.1830 cc         1 SCX       0.404500
      6 N06          2.4060     0.8840     0.1490 nd         1 SCX      -0.670000
      7 C07          1.9030    -0.3270     0.0710 cc         1 SCX       0.552800
      8 C08          0.5310    -0.6180     0.0010 cc         1 SCX      -0.409300
      9 C09         -0.3790     0.4280     0.0230 cd         1 SCX       0.316300
     10 N10         -1.7050     0.3330    -0.0220 nu         1 SCX      -0.766600
     11 C11          2.8770    -1.4440     0.0320 ca         1 SCX      -0.234500
     12 C12         -2.3940    -0.9360    -0.1750 c3         1 SCX       0.306100
     13 C13         -3.8720    -0.7370    -0.0860 ca         1 SCX      -0.438900
     14 C14         -4.6800    -0.6160    -1.2080 ca         1 SCX       0.506700
     15 N15         -5.9830    -0.4150    -1.1470 nb         1 SCX      -0.772500
     16 C16         -6.5190    -0.3240     0.0770 ca         1 SCX       0.915900
     17 N17         -5.8400    -0.4310     1.2270 nb         1 SCX      -0.772500
     18 C18         -4.5400    -0.6330     1.1290 ca         1 SCX       0.506700
     19 C19          2.9140    -2.4290     1.0090 ca         1 SCX       0.189900
     20 C20          3.8230    -3.4680     1.0000 ca         1 SCX      -0.195500
     21 C21          4.7390    -3.5320    -0.0400 ca         1 SCX      -0.067000
     22 C22          4.7440    -2.5750    -1.0440 ca         1 SCX      -0.195500
     23 C23          3.8180    -1.5530    -0.9840 ca         1 SCX       0.189900
     24 C24          2.9740     4.0190     0.2450 c3         1 SCX       0.016800
     25 N25         -7.8460    -0.1370     0.1590 nv         1 SCX      -0.946500
     26 C26          3.7270     3.9610    -1.0830 c3         1 SCX      -0.088100
     27 F27          2.0330    -2.3510     2.0140 f          1 SCX      -0.128400
     28 F28          3.8060    -0.6370    -1.9570 f          1 SCX      -0.128400
     29 H05          0.0660     4.7950     0.2110 h4         1 SCX       0.043800
     30 H08          0.1870    -1.6360    -0.0940 ha         1 SCX       0.157000
     31 HN10        -2.2340     1.1880    -0.1080 hn         1 SCX       0.473800
     32 H121        -2.1340    -1.3950    -1.1340 h1         1 SCX       0.054200
     33 H122        -2.0600    -1.6220     0.6080 h1         1 SCX       0.054200
     34 H14         -4.2490    -0.6910    -2.2020 h4         1 SCX       0.026100
     35 H18         -3.9940    -0.7230     2.0630 h4         1 SCX       0.026100
     36 H20          3.8160    -4.2060     1.7900 ha         1 SCX       0.156500
     37 H21          5.4580    -4.3380    -0.0690 ha         1 SCX       0.141000
     38 H22          5.4500    -2.6210    -1.8620 ha         1 SCX       0.156500
     39 H241         2.7790     5.0590     0.5120 hc         1 SCX       0.043200
     40 H242         3.6120     3.6160     1.0360 hc         1 SCX       0.043200
     41 H251        -8.3630     0.0960    -0.6710 hn         1 SCX       0.448300
     42 H252        -8.2610     0.0840     1.0470 hn         1 SCX       0.448300
     43 H261         4.6710     4.5050    -1.0200 hc         1 SCX       0.034700
     44 H262         3.9520     2.9300    -1.3590 hc         1 SCX       0.034700
     45 H263         3.1390     4.4040    -1.8870 hc         1 SCX       0.034700
@<TRIPOS>BOND
     1     1     2 2   
     2     1     5 1   
     3     1    24 1   
     4     2     3 1   
     5     2     6 1   
     6     3     4 1   
     7     3     9 1   
     8     4     5 2   
     9     5    29 1   
    10     6     7 2   
    11     7     8 1   
    12     7    11 1   
    13     8     9 2   
    14     8    30 1   
    15     9    10 1   
    16    10    12 1   
    17    10    31 1   
    18    11    19 ar  
    19    11    23 ar  
    20    12    13 1   
    21    12    32 1   
    22    12    33 1   
    23    13    14 ar  
    24    13    18 ar  
    25    14    15 ar  
    26    14    34 1   
    27    15    16 ar  
    28    16    17 ar  
    29    16    25 1   
    30    17    18 ar  
    31    18    35 1   
    32    19    20 ar  
    33    19    27 1   
    34    20    21 ar  
    35    20    36 1   
    36    21    22 ar  
    37    21    37 1   
    38    22    23 ar  
    39    22    38 1   
    40    23    28 1   
    41    24    26 1   
    42    24    39 1   
    43    24    40 1   
    44    25    41 1   
    45    25    42 1   
    46    26    43 1   
    47    26    44 1   
    48    26    45 1   
@<TRIPOS>SUBSTRUCTURE
     1 SCX         1 TEMP              0 ****  ****    0 ROOT
