@<TRIPOS>MOLECULE
SCZ
   45    49     1     0     0
SMALL
abcg2


@<TRIPOS>ATOM
      1 C01          2.0740     2.4760     0.0590 cc         1 SCZ      -0.265800
      2 C02          1.6430     1.1540     0.0310 cd         1 SCZ       0.428500
      3 N03          0.2660     1.2170    -0.0280 na         1 SCZ       0.068900
      4 N04         -0.2040     2.4650    -0.0400 nd         1 SCZ      -0.617100
      5 C05          0.8870     3.2180     0.0130 cc         1 SCZ       0.406500
      6 N06          2.3020    -0.0090     0.0610 nd         1 SCZ      -0.697000
      7 C07          1.5800    -1.1100     0.0190 cc         1 SCZ       0.493500
      8 C08          0.1710    -1.1080    -0.0650 cc         1 SCZ      -0.337000
      9 C09         -0.5070     0.0970    -0.0800 cd         1 SCZ       0.404000
     10 N10         -1.8270     0.2690    -0.1410 nu         1 SCZ      -0.965200
     11 C11          2.3240    -2.3890     0.0470 ca         1 SCZ      -0.156500
     12 C12         -2.7590    -0.8380    -0.2040 c3         1 SCZ       0.290100
     13 C13         -4.1650    -0.3230    -0.1260 ca         1 SCZ      -0.178300
     14 C14         -4.8060    -0.1910     1.1010 ca         1 SCZ       0.359900
     15 N15         -6.0360     0.2830     1.2450 nb         1 SCZ      -0.663000
     16 C16         -6.6900     0.6540     0.1500 ca         1 SCZ       0.350900
     17 C17         -6.1490     0.5650    -1.1240 ca         1 SCZ      -0.165000
     18 C18         -4.8630     0.0690    -1.2620 ca         1 SCZ      -0.053000
     19 C19          1.7180    -3.5810     0.4480 ca         1 SCZ      -0.075500
     20 C20          2.4370    -4.7670     0.4710 ca         1 SCZ      -0.121500
     21 C21          3.7710    -4.7840     0.0900 ca         1 SCZ      -0.095000
     22 C22          4.3850    -3.6020    -0.3070 ca         1 SCZ      -0.121500
     23 C23          3.6700    -2.4160    -0.3250 ca         1 SCZ      -0.075500
     24 C24          3.4730     2.9310     0.1120 cx         1 SCZ      -0.029500
     25 C25          3.9700     4.0060    -0.8180 cx         1 SCZ      -0.132400
     26 C26          3.8220     4.2920     0.6410 cx         1 SCZ      -0.132400
     27 H05          0.7830     4.2930     0.0180 h4         1 SCZ       0.043800
     28 H08         -0.3880    -2.0270    -0.1440 ha         1 SCZ       0.135000
     29 HN10        -2.1760     1.2140    -0.1880 hn         1 SCZ       0.533000
     30 H121        -2.6160    -1.4050    -1.1290 h1         1 SCZ       0.054700
     31 H122        -2.5700    -1.5260     0.6260 h1         1 SCZ       0.054700
     32 H14         -4.2930    -0.4920     2.0100 h4         1 SCZ       0.024100
     33 H16         -7.6940     1.0360     0.2920 h4         1 SCZ       0.024100
     34 H17         -6.7250     0.8750    -1.9850 ha         1 SCZ       0.129000
     35 H18         -4.4100    -0.0200    -2.2420 ha         1 SCZ       0.124000
     36 H19          0.6850    -3.5920     0.7680 ha         1 SCZ       0.123000
     37 H20          1.9520    -5.6800     0.7910 ha         1 SCZ       0.114000
     38 H21          4.3310    -5.7100     0.1030 ha         1 SCZ       0.113000
     39 H22          5.4260    -3.6060    -0.6060 ha         1 SCZ       0.114000
     40 H23          4.1520    -1.4980    -0.6340 ha         1 SCZ       0.123000
     41 H24          4.1820     2.1400     0.3310 hc         1 SCZ       0.092700
     42 H251         4.9680     3.9020    -1.2240 hc         1 SCZ       0.068700
     43 H252         3.2540     4.4500    -1.4990 hc         1 SCZ       0.068700
     44 H261         3.0090     4.9370     0.9540 hc         1 SCZ       0.068700
     45 H262         4.7180     4.3880     1.2420 hc         1 SCZ       0.068700
@<TRIPOS>BOND
     1     1     2 2   
     2     1     5 1   
     3     1    24 1   
     4     2     3 1   
     5     2     6 1   
     6     3     4 1   
     7     3     9 1   
     8     4     5 2   
     9     5    27 1   
    10     6     7 2   
    11     7     8 1   
    12     7    11 1   
    13     8     9 2   
    14     8    28 1   
    15     9    10 1   
    16    10    12 1   
    17    10    29 1   
    18    11    19 ar  
    19    11    23 ar  
    20    12    13 1   
    21    12    30 1   
    22    12    31 1   
    23    13    14 ar  
    24    13    18 ar  
    25    14    15 ar  
    26    14    32 1   
    27    15    16 ar  
    28    16    17 ar  
    29    16    33 1   
    30    17    18 ar  
    31    17    34 1   
    32    18    35 1   
    33    19    20 ar  
    34    19    36 1   
    35    20    21 ar  
    36    20    37 1   
    37    21    22 ar  
    38    21    38 1   
    39    22    23 ar  
    40    22    39 1   
    41    23    40 1   
    42    24    25 1   
    43    24    26 1   
    44    24    41 1   
    45    25    26 1   
    46    25    42 1   
    47    25    43 1   
    48    26    44 1   
    49    26    45 1   
@<TRIPOS>SUBSTRUCTURE
     1 SCZ         1 TEMP              0 ****  ****    0 ROOT
