@<TRIPOS>MOLECULE
SCZ
   45    49     1     0     0
SMALL
No Charge or Current Charge


@<TRIPOS>ATOM
      1 C01          2.1340     2.3850    -0.1030 cc         1 SCZ      -0.265800
      2 C02          1.6370     1.1230    -0.0320 cd         1 SCZ       0.428500
      3 N03          0.2770     1.2660     0.0040 na         1 SCZ       0.068900
      4 N04         -0.1990     2.5730    -0.0390 nd         1 SCZ      -0.617100
      5 C05          0.9680     3.2120    -0.1020 cc         1 SCZ       0.406500
      6 N06          2.4260    -0.0030    -0.0120 nd         1 SCZ      -0.697000
      7 C07          1.6620    -1.1000     0.0580 cc         1 SCZ       0.493500
      8 C08          0.2070    -1.0560     0.1020 cc         1 SCZ      -0.337000
      9 C09         -0.5110     0.1210     0.0760 cd         1 SCZ       0.404000
     10 N10         -1.8800     0.2080     0.1190 nu         1 SCZ      -0.965200
     11 C11          2.3930    -2.4030     0.0730 ca         1 SCZ      -0.156500
     12 C12         -2.8470    -0.8890     0.0700 c3         1 SCZ       0.290100
     13 C13         -4.2490    -0.3190     0.0140 ca         1 SCZ      -0.178300
     14 C14         -5.0810    -0.3700     1.1490 ca         1 SCZ       0.359900
     15 N15         -6.3460     0.1150     1.1630 nb         1 SCZ      -0.663000
     16 C16         -6.8200     0.6720     0.0250 ca         1 SCZ       0.350900
     17 C17         -6.0610     0.7640    -1.1540 ca         1 SCZ      -0.165000
     18 C18         -4.7510     0.2600    -1.1660 ca         1 SCZ      -0.053000
     19 C19          1.7270    -3.6590     0.0290 ca         1 SCZ      -0.075500
     20 C20          2.4450    -4.8680     0.0370 ca         1 SCZ      -0.121500
     21 C21          3.8440    -4.8630     0.0860 ca         1 SCZ      -0.095000
     22 C22          4.5280    -3.6420     0.1220 ca         1 SCZ      -0.121500
     23 C23          3.8160    -2.4300     0.1130 ca         1 SCZ      -0.075500
     24 C24          3.5110     2.9290    -0.1700 cx         1 SCZ      -0.029500
     25 C25          3.8010     4.1660    -0.9890 cx         1 SCZ      -0.132400
     26 C26          3.8490     4.2310     0.5200 cx         1 SCZ      -0.132400
     27 H05          0.9440     4.2930    -0.1490 h4         1 SCZ       0.043800
     28 H08         -0.3480    -1.9750     0.1700 ha         1 SCZ       0.135000
     29 HN10        -2.2320     1.1670     0.0570 hn         1 SCZ       0.533000
     30 H121        -2.6730    -1.5110    -0.8200 h1         1 SCZ       0.054700
     31 H122        -2.7390    -1.5320     0.9540 h1         1 SCZ       0.054700
     32 H14         -4.7270    -0.8130     2.0790 h4         1 SCZ       0.024100
     33 H16         -7.8390     1.0560     0.0590 h4         1 SCZ       0.024100
     34 H17         -6.4890     1.2210    -2.0410 ha         1 SCZ       0.129000
     35 H18         -4.1410     0.3180    -2.0670 ha         1 SCZ       0.124000
     36 H19          0.6470    -3.7380    -0.0240 ha         1 SCZ       0.123000
     37 H20          1.9100    -5.8140     0.0020 ha         1 SCZ       0.114000
     38 H21          4.3960    -5.8010     0.0920 ha         1 SCZ       0.113000
     39 H22          5.6150    -3.6310     0.1570 ha         1 SCZ       0.114000
     40 H23          4.3950    -1.5100     0.1450 ha         1 SCZ       0.123000
     41 H24          4.2780     2.1570    -0.1610 hc         1 SCZ       0.092700
     42 H251         4.7450     4.2030    -1.5270 hc         1 SCZ       0.068700
     43 H252         2.9750     4.6610    -1.4940 hc         1 SCZ       0.068700
     44 H261         3.0550     4.7700     1.0320 hc         1 SCZ       0.068700
     45 H262         4.8250     4.3110     0.9920 hc         1 SCZ       0.068700
@<TRIPOS>BOND
     1     1     2 2   
     2     1     5 1   
     3     1    24 1   
     4     2     3 1   
     5     2     6 1   
     6     3     4 1   
     7     3     9 1   
     8     4     5 2   
     9     5    27 1   
    10     6     7 2   
    11     7     8 1   
    12     7    11 1   
    13     8     9 2   
    14     8    28 1   
    15     9    10 1   
    16    10    12 1   
    17    10    29 1   
    18    11    19 ar  
    19    11    23 ar  
    20    12    13 1   
    21    12    30 1   
    22    12    31 1   
    23    13    14 ar  
    24    13    18 ar  
    25    14    15 ar  
    26    14    32 1   
    27    15    16 ar  
    28    16    17 ar  
    29    16    33 1   
    30    17    18 ar  
    31    17    34 1   
    32    18    35 1   
    33    19    20 ar  
    34    19    36 1   
    35    20    21 ar  
    36    20    37 1   
    37    21    22 ar  
    38    21    38 1   
    39    22    23 ar  
    40    22    39 1   
    41    23    40 1   
    42    24    25 1   
    43    24    26 1   
    44    24    41 1   
    45    25    26 1   
    46    25    42 1   
    47    25    43 1   
    48    26    44 1   
    49    26    45 1   
@<TRIPOS>SUBSTRUCTURE
     1 SCZ         1 TEMP              0 ****  ****    0 ROOT
