@<TRIPOS>MOLECULE
SD1
   66    69     1     0     0
SMALL
bcc


@<TRIPOS>ATOM
      1 C1           4.1760     1.0250     0.3120 c6         1 SD1      -0.011100
      2 C2           3.6090    -0.2470    -0.2050 cc         1 SD1      -0.039600
      3 C3           4.1890    -1.4900    -0.0850 cd         1 SD1      -0.251600
      4 C4           5.4620    -1.6680     0.5760 c          1 SD1       0.616700
      5 C5           6.1370    -0.3820     1.0050 c6         1 SD1      -0.174400
      6 C6           5.1780     0.7360     1.4450 c6         1 SD1      -0.033000
      7 C7           5.9880     2.0000     1.7240 c3         1 SD1      -0.087600
      8 C8           4.4410     0.3280     2.7230 c3         1 SD1      -0.087600
      9 O9           5.9810    -2.7600     0.7430 o          1 SD1      -0.539100
     10 C10          3.3030    -2.4390    -0.6750 cd         1 SD1      -0.120000
     11 C11          2.2190    -1.7530    -1.1340 cc         1 SD1      -0.113600
     12 N12          2.4180    -0.4070    -0.8400 na         1 SD1       0.010800
     13 C13          1.0070    -2.2520    -1.8330 c3         1 SD1      -0.024800
     14 C14          1.5410     0.6510    -1.1780 ca         1 SD1       0.057800
     15 C15          2.0070     1.6960    -1.9680 ca         1 SD1      -0.193000
     16 C16          1.1530     2.7470    -2.2360 ca         1 SD1      -0.057000
     17 C17         -0.1580     2.7770    -1.7650 ca         1 SD1      -0.237600
     18 C18         -0.6260     1.7090    -0.9640 ca         1 SD1       0.260600
     19 C19          0.2530     0.6530    -0.6820 ca         1 SD1      -0.209000
     20 C20         -1.0360     3.9410    -2.0730 c          1 SD1       0.697700
     21 O21         -1.9190     4.3090    -1.3000 o          1 SD1      -0.635100
     22 N22         -0.8040     4.5690    -3.2340 nt         1 SD1      -0.662000
     23 N23         -1.8900     1.7210    -0.4410 nu         1 SD1      -0.668000
     24 C24         -2.5980     0.6200     0.0450 ca         1 SD1       0.226600
     25 C25         -3.2970     0.7570     1.2400 ca         1 SD1      -0.280500
     26 C26         -4.0630    -0.3060     1.7140 ca         1 SD1       0.178600
     27 C27         -4.1090    -1.5110     1.0100 ca         1 SD1       0.009100
     28 C28         -3.4100    -1.6310    -0.1950 ca         1 SD1       0.178600
     29 C29         -2.6540    -0.5680    -0.6800 ca         1 SD1      -0.280500
     30 O30         -3.5450    -2.8110    -0.8240 os         1 SD1      -0.297400
     31 C31         -2.9730    -2.9630    -2.1070 c3         1 SD1       0.121200
     32 O32         -4.8270    -2.5600     1.4920 os         1 SD1      -0.300900
     33 C33         -6.1820    -2.5870     1.0640 c3         1 SD1       0.123700
     34 O34         -4.7760    -0.2710     2.8510 os         1 SD1      -0.297400
     35 C35         -4.7620     0.9150     3.6220 c3         1 SD1       0.121200
     36 H1           4.6930     1.5600    -0.4940 hc         1 SD1       0.057700
     37 H1A          3.3880     1.6950     0.6670 hc         1 SD1       0.057700
     38 H5           6.8560    -0.5980     1.8000 hc         1 SD1       0.066200
     39 H5A          6.7210    -0.0320     0.1440 hc         1 SD1       0.066200
     40 H7           5.3390     2.8210     2.0370 hc         1 SD1       0.038367
     41 H7A          6.7130     1.8290     2.5210 hc         1 SD1       0.038367
     42 H7B          6.5360     2.3260     0.8370 hc         1 SD1       0.038367
     43 H8           3.8120    -0.5530     2.5840 hc         1 SD1       0.038367
     44 H8A          5.1540     0.1060     3.5200 hc         1 SD1       0.038367
     45 H8B          3.8010     1.1390     3.0720 hc         1 SD1       0.038367
     46 H10          3.4530    -3.5040    -0.7630 ha         1 SD1       0.165000
     47 H13          0.1320    -2.2620    -1.1810 hc         1 SD1       0.046367
     48 H13A         0.7520    -1.6560    -2.7110 hc         1 SD1       0.046367
     49 H13B         1.1770    -3.2750    -2.1630 hc         1 SD1       0.046367
     50 H15          3.0140     1.6910    -2.3610 ha         1 SD1       0.150000
     51 H16          1.5310     3.5740    -2.8230 ha         1 SD1       0.133000
     52 H19         -0.0690    -0.1490    -0.0310 ha         1 SD1       0.165000
     53 HN22        -0.1910     4.1970    -3.9380 hn         1 SD1       0.318000
     54 HN2A        -1.3670     5.3630    -3.4900 hn         1 SD1       0.318000
     55 HN23        -2.3200     2.6320    -0.3620 hn         1 SD1       0.484800
     56 H25         -3.2290     1.6880     1.7860 ha         1 SD1       0.147000
     57 H29         -2.1380    -0.6350    -1.6290 ha         1 SD1       0.147000
     58 H31         -3.2420    -3.9600    -2.4480 h1         1 SD1       0.043200
     59 H31A        -3.3610    -2.2300    -2.8180 h1         1 SD1       0.043200
     60 H31B        -1.8830    -2.8880    -2.0840 h1         1 SD1       0.043200
     61 H33         -6.7260    -1.6930     1.3810 h1         1 SD1       0.033033
     62 H33A        -6.2630    -2.6790    -0.0220 h1         1 SD1       0.033033
     63 H33B        -6.6470    -3.4580     1.5220 h1         1 SD1       0.033033
     64 H35         -5.4070     0.7330     4.4780 h1         1 SD1       0.043200
     65 H35A        -3.7580     1.1550     3.9820 h1         1 SD1       0.043200
     66 H35B        -5.1500     1.7710     3.0640 h1         1 SD1       0.043200
@<TRIPOS>BOND
     1     1     2 1   
     2     1     6 1   
     3     1    36 1   
     4     1    37 1   
     5     2     3 2   
     6     2    12 1   
     7     3     4 1   
     8     3    10 1   
     9     4     5 1   
    10     4     9 2   
    11     5     6 1   
    12     5    38 1   
    13     5    39 1   
    14     6     7 1   
    15     6     8 1   
    16     7    40 1   
    17     7    41 1   
    18     7    42 1   
    19     8    43 1   
    20     8    44 1   
    21     8    45 1   
    22    10    11 2   
    23    10    46 1   
    24    11    12 1   
    25    11    13 1   
    26    12    14 1   
    27    13    47 1   
    28    13    48 1   
    29    13    49 1   
    30    14    15 ar  
    31    14    19 ar  
    32    15    16 ar  
    33    15    50 1   
    34    16    17 ar  
    35    16    51 1   
    36    17    18 ar  
    37    17    20 1   
    38    18    19 ar  
    39    18    23 1   
    40    19    52 1   
    41    20    21 2   
    42    20    22 1   
    43    22    53 1   
    44    22    54 1   
    45    23    24 1   
    46    23    55 1   
    47    24    25 ar  
    48    24    29 ar  
    49    25    26 ar  
    50    25    56 1   
    51    26    27 ar  
    52    26    34 1   
    53    27    28 ar  
    54    27    32 1   
    55    28    29 ar  
    56    28    30 1   
    57    29    57 1   
    58    30    31 1   
    59    31    58 1   
    60    31    59 1   
    61    31    60 1   
    62    32    33 1   
    63    33    61 1   
    64    33    62 1   
    65    33    63 1   
    66    34    35 1   
    67    35    64 1   
    68    35    65 1   
    69    35    66 1   
@<TRIPOS>SUBSTRUCTURE
     1 SD1         1 TEMP              0 ****  ****    0 ROOT
