@<TRIPOS>MOLECULE
SD1
   66    69     1     0     0
SMALL
No Charge or Current Charge


@<TRIPOS>ATOM
      1 C1           4.1210     0.8960     0.3440 c6         1 SD1      -0.011100
      2 C2           3.5840    -0.2490    -0.4800 cc         1 SD1      -0.090300
      3 C3           4.1230    -1.5050    -0.5480 cd         1 SD1      -0.251600
      4 C4           5.3550    -1.8680     0.1950 c          1 SD1       0.616700
      5 C5           6.0180    -0.7050     0.9600 c6         1 SD1      -0.174400
      6 C6           5.0130     0.3580     1.5110 c6         1 SD1      -0.033000
      7 C7           5.7970     1.5370     2.1600 c3         1 SD1      -0.087600
      8 C8           4.1250    -0.2720     2.6290 c3         1 SD1      -0.087600
      9 O9           5.8090    -3.0050     0.2250 o          1 SD1      -0.539100
     10 C10          3.3000    -2.3120    -1.3780 cd         1 SD1      -0.102000
     11 C11          2.2450    -1.5650    -1.8400 cc         1 SD1      -0.164300
     12 N12          2.4450    -0.3060    -1.2730 na         1 SD1       0.112200
     13 C13          1.1180    -1.9520    -2.7610 c3         1 SD1      -0.024800
     14 C14          1.5730     0.7690    -1.4400 ca         1 SD1       0.057800
     15 C15          1.9550     1.8790    -2.2050 ca         1 SD1      -0.175000
     16 C16          1.0870     2.9700    -2.3510 ca         1 SD1      -0.039000
     17 C17         -0.1920     2.9700    -1.7380 ca         1 SD1      -0.237600
     18 C18         -0.5780     1.8330    -0.9850 ca         1 SD1       0.399000
     19 C19          0.3130     0.7600    -0.8250 ca         1 SD1      -0.191000
     20 C20         -1.1030     4.1700    -1.8840 c          1 SD1       0.630700
     21 O21         -2.0980     4.3560    -1.2010 o          1 SD1      -0.635100
     22 N22         -0.7770     5.1070    -2.7980 nt         1 SD1      -0.595000
     23 N23         -1.8250     1.7890    -0.3680 nu         1 SD1      -1.000000
     24 C24         -2.6320     0.7900     0.1550 ca         1 SD1       0.365000
     25 C25         -3.5320     1.1340     1.1590 ca         1 SD1      -0.262500
     26 C26         -4.3870     0.1600     1.7110 ca         1 SD1       0.178600
     27 C27         -4.3500    -1.1750     1.2420 ca         1 SD1       0.009100
     28 C28         -3.4390    -1.5150     0.1950 ca         1 SD1       0.178600
     29 C29         -2.5970    -0.5150    -0.3400 ca         1 SD1      -0.262500
     30 O30         -3.3840    -2.8070    -0.3010 os         1 SD1      -0.320600
     31 C31         -2.4300    -3.2330    -1.2900 c3         1 SD1       0.144400
     32 O32         -5.2320    -2.0700     1.8530 os         1 SD1      -0.324100
     33 C33         -5.3430    -3.4690     1.5360 c3         1 SD1       0.146900
     34 O34         -5.2820     0.4770     2.7210 os         1 SD1      -0.320600
     35 C35         -5.3990     1.8010     3.2700 c3         1 SD1       0.144400
     36 H1           4.7130     1.5600    -0.3010 hc         1 SD1       0.057700
     37 H1A          3.3050     1.5120     0.7450 hc         1 SD1       0.057700
     38 H5           6.6950    -1.1030     1.7280 hc         1 SD1       0.066200
     39 H5A          6.6410    -0.1910     0.2150 hc         1 SD1       0.066200
     40 H7           5.1170     2.3020     2.5540 hc         1 SD1       0.038367
     41 H7A          6.4250     1.1920     2.9900 hc         1 SD1       0.038367
     42 H7B          6.4560     2.0270     1.4330 hc         1 SD1       0.038367
     43 H8           3.5200    -1.1050     2.2520 hc         1 SD1       0.038367
     44 H8A          4.7360    -0.6600     3.4530 hc         1 SD1       0.038367
     45 H8B          3.4320     0.4650     3.0520 hc         1 SD1       0.038367
     46 H10          3.4770    -3.3590    -1.6130 ha         1 SD1       0.147000
     47 H13          0.1460    -1.7930    -2.2830 hc         1 SD1       0.046367
     48 H13A         1.1440    -1.3550    -3.6810 hc         1 SD1       0.046367
     49 H13B         1.1850    -3.0090    -3.0430 hc         1 SD1       0.046367
     50 H15          2.9340     1.9000    -2.6790 ha         1 SD1       0.132000
     51 H16          1.4350     3.8200    -2.9340 ha         1 SD1       0.115000
     52 H19          0.0400    -0.0850    -0.2030 ha         1 SD1       0.147000
     53 HN22         0.0300     4.9840    -3.3890 hn         1 SD1       0.318000
     54 HN2A        -1.3690     5.9160    -2.9000 hn         1 SD1       0.318000
     55 HN23        -2.2600     2.7190    -0.3540 hn         1 SD1       0.540000
     56 H25         -3.5480     2.1600     1.5110 ha         1 SD1       0.129000
     57 H29         -1.9280    -0.7350    -1.1620 ha         1 SD1       0.129000
     58 H31         -2.5650    -4.2990    -1.5100 h1         1 SD1       0.043200
     59 H31A        -2.5590    -2.6750    -2.2260 h1         1 SD1       0.043200
     60 H31B        -1.4050    -3.0890    -0.9270 h1         1 SD1       0.043200
     61 H33         -5.6470    -3.6120     0.4910 h1         1 SD1       0.033033
     62 H33A        -4.3920    -3.9880     1.7110 h1         1 SD1       0.033033
     63 H33B        -6.1030    -3.9390     2.1720 h1         1 SD1       0.033033
     64 H35         -6.1660     1.8210     4.0540 h1         1 SD1       0.043200
     65 H35A        -4.4490     2.1250     3.7160 h1         1 SD1       0.043200
     66 H35B        -5.6880     2.5210     2.4940 h1         1 SD1       0.043200
@<TRIPOS>BOND
     1     1     2 1   
     2     1     6 1   
     3     1    36 1   
     4     1    37 1   
     5     2     3 2   
     6     2    12 1   
     7     3     4 1   
     8     3    10 1   
     9     4     5 1   
    10     4     9 2   
    11     5     6 1   
    12     5    38 1   
    13     5    39 1   
    14     6     7 1   
    15     6     8 1   
    16     7    40 1   
    17     7    41 1   
    18     7    42 1   
    19     8    43 1   
    20     8    44 1   
    21     8    45 1   
    22    10    11 2   
    23    10    46 1   
    24    11    12 1   
    25    11    13 1   
    26    12    14 1   
    27    13    47 1   
    28    13    48 1   
    29    13    49 1   
    30    14    15 ar  
    31    14    19 ar  
    32    15    16 ar  
    33    15    50 1   
    34    16    17 ar  
    35    16    51 1   
    36    17    18 ar  
    37    17    20 1   
    38    18    19 ar  
    39    18    23 1   
    40    19    52 1   
    41    20    21 2   
    42    20    22 1   
    43    22    53 1   
    44    22    54 1   
    45    23    24 1   
    46    23    55 1   
    47    24    25 ar  
    48    24    29 ar  
    49    25    26 ar  
    50    25    56 1   
    51    26    27 ar  
    52    26    34 1   
    53    27    28 ar  
    54    27    32 1   
    55    28    29 ar  
    56    28    30 1   
    57    29    57 1   
    58    30    31 1   
    59    31    58 1   
    60    31    59 1   
    61    31    60 1   
    62    32    33 1   
    63    33    61 1   
    64    33    62 1   
    65    33    63 1   
    66    34    35 1   
    67    35    64 1   
    68    35    65 1   
    69    35    66 1   
@<TRIPOS>SUBSTRUCTURE
     1 SD1         1 TEMP              0 ****  ****    0 ROOT
