@<TRIPOS>MOLECULE
SD2
   62    63     1     0     0
SMALL
abcg2


@<TRIPOS>ATOM
      1 CBE         -6.3150    -3.4260     1.4420 c3         1 SD2       0.044900
      2 SBD         -6.8490    -1.8270     0.7970 ss         1 SD2      -0.446000
      3 CBC         -5.2520    -1.1810     0.2270 c3         1 SD2       0.062600
      4 CBB         -5.4520     0.1920    -0.3960 c3         1 SD2      -0.074400
      5 CAY         -4.1430     0.7660    -0.9420 c3         1 SD2       0.030700
      6 CAZ         -4.4200     2.0550    -1.7270 c          1 SD2       0.593100
      7 OBA         -4.2920     3.1550    -1.2190 o          1 SD2      -0.607100
      8 NBF         -4.8430     1.8540    -2.9810 nt         1 SD2      -0.602000
      9 NAX         -3.2260     1.0240     0.1340 ns         1 SD2      -0.480900
     10 CAS         -1.9570     1.3930    -0.1070 c          1 SD2       0.607100
     11 OAT         -1.4520     1.3520    -1.2160 o          1 SD2      -0.584100
     12 CAR         -1.2150     1.9380     1.1010 c5         1 SD2       0.028700
     13 CAU         -1.3440     3.4700     1.1710 c5         1 SD2      -0.086400
     14 CAV          0.0240     3.9210     1.6710 c5         1 SD2      -0.096400
     15 CAW          0.9700     2.9530     0.9780 c5         1 SD2       0.108000
     16 NAQ          0.2120     1.7080     0.9870 n          1 SD2      -0.403800
     17 CAG          0.6650     0.4420     0.9860 c          1 SD2       0.591100
     18 OAH         -0.0990    -0.5020     1.1060 o          1 SD2      -0.586100
     19 CAF          2.1780     0.2400     0.8440 c3         1 SD2       0.059700
     20 NAA          2.5500    -1.0910     1.2460 ns         1 SD2      -0.490900
     21 CAB          2.2630    -2.2240     0.5830 c          1 SD2       0.627100
     22 OAC          1.7780    -2.2800    -0.5330 o          1 SD2      -0.557100
     23 CAD          2.6160    -3.4830     1.3530 c3         1 SD2      -0.037400
     24 SAE          2.5750    -4.8800     0.1980 sh         1 SD2      -0.356800
     25 CAI          2.6870     0.6320    -0.5580 c3         1 SD2      -0.030100
     26 CAJ          4.1780     0.4880    -0.6660 ca         1 SD2      -0.117300
     27 CAK          4.7720    -0.6400    -1.2270 ca         1 SD2      -0.066500
     28 CAM          6.1500    -0.7770    -1.2920 ca         1 SD2      -0.177500
     29 CAO          6.9750     0.2260    -0.7890 ca         1 SD2       0.137100
     30 OAP          8.3100     0.0500    -0.8720 oh         1 SD2      -0.534100
     31 CAN          6.3990     1.3630    -0.2290 ca         1 SD2      -0.177500
     32 CAL          5.0190     1.4820    -0.1730 ca         1 SD2      -0.066500
     33 HBE1        -5.6100    -3.3040     2.2620 h1         1 SD2       0.061700
     34 HBE2        -7.1970    -3.9450     1.8130 h1         1 SD2       0.061700
     35 HBE3        -5.8590    -4.0310     0.6590 h1         1 SD2       0.061700
     36 HBC1        -4.5640    -1.1380     1.0740 h1         1 SD2       0.067200
     37 HBC2        -4.8290    -1.8670    -0.5100 h1         1 SD2       0.067200
     38 HBB1        -6.1700     0.1160    -1.2150 hc         1 SD2       0.064200
     39 HBB2        -5.8800     0.8850     0.3350 hc         1 SD2       0.064200
     40 HAY         -3.6990     0.0300    -1.6190 h1         1 SD2       0.085700
     41 HBF1        -4.9090     0.9320    -3.3790 hn         1 SD2       0.316000
     42 HBF2        -5.1040     2.6290    -3.5680 hn         1 SD2       0.316000
     43 HAX         -3.6070     1.1800     1.0540 hn         1 SD2       0.318500
     44 HAR         -1.5970     1.4790     2.0180 h1         1 SD2       0.067700
     45 HAU1        -1.5390     3.8850     0.1800 hc         1 SD2       0.070200
     46 HAU2        -2.1620     3.7730     1.8220 hc         1 SD2       0.070200
     47 HAV1         0.2430     4.9590     1.4240 hc         1 SD2       0.055700
     48 HAV2         0.0970     3.8060     2.7540 hc         1 SD2       0.055700
     49 HAW1         1.1750     3.2830    -0.0440 h1         1 SD2       0.050700
     50 HAW2         1.9220     2.8530     1.4990 h1         1 SD2       0.050700
     51 HAF          2.6720     0.8980     1.5640 h1         1 SD2       0.053700
     52 HAA          2.9290    -1.1820     2.1750 hn         1 SD2       0.311500
     53 HAD1         3.5990    -3.3940     1.8160 h1         1 SD2       0.073200
     54 HAD2         1.8860    -3.6260     2.1520 h1         1 SD2       0.073200
     55 HAE          2.9770    -5.7980     1.0840 hs         1 SD2       0.180800
     56 HAI1         2.1800     0.0390    -1.3170 hc         1 SD2       0.076200
     57 HAI2         2.4120     1.6700    -0.7440 hc         1 SD2       0.076200
     58 HAK          4.1520    -1.4320    -1.6280 ha         1 SD2       0.118500
     59 HAM          6.5890    -1.6630    -1.7340 ha         1 SD2       0.120500
     60 HAP          8.7720     0.8110    -0.5040 ho         1 SD2       0.463000
     61 HAN          7.0240     2.1590     0.1610 ha         1 SD2       0.120500
     62 HAL          4.5930     2.3790     0.2620 ha         1 SD2       0.118500
@<TRIPOS>BOND
     1     1     2 1   
     2     1    33 1   
     3     1    34 1   
     4     1    35 1   
     5     2     3 1   
     6     3     4 1   
     7     3    36 1   
     8     3    37 1   
     9     4     5 1   
    10     4    38 1   
    11     4    39 1   
    12     5     6 1   
    13     5     9 1   
    14     5    40 1   
    15     6     7 2   
    16     6     8 1   
    17     8    41 1   
    18     8    42 1   
    19     9    10 1   
    20     9    43 1   
    21    10    11 2   
    22    10    12 1   
    23    12    13 1   
    24    12    16 1   
    25    12    44 1   
    26    13    14 1   
    27    13    45 1   
    28    13    46 1   
    29    14    15 1   
    30    14    47 1   
    31    14    48 1   
    32    15    16 1   
    33    15    49 1   
    34    15    50 1   
    35    16    17 1   
    36    17    18 2   
    37    17    19 1   
    38    19    20 1   
    39    19    25 1   
    40    19    51 1   
    41    20    21 1   
    42    20    52 1   
    43    21    22 2   
    44    21    23 1   
    45    23    24 1   
    46    23    53 1   
    47    23    54 1   
    48    24    55 1   
    49    25    26 1   
    50    25    56 1   
    51    25    57 1   
    52    26    27 ar  
    53    26    32 ar  
    54    27    28 ar  
    55    27    58 1   
    56    28    29 ar  
    57    28    59 1   
    58    29    30 1   
    59    29    31 ar  
    60    30    60 1   
    61    31    32 ar  
    62    31    61 1   
    63    32    62 1   
@<TRIPOS>SUBSTRUCTURE
     1 SD2         1 TEMP              0 ****  ****    0 ROOT
