@<TRIPOS>MOLECULE
SD2
   62    63     1     0     0
SMALL
No Charge or Current Charge


@<TRIPOS>ATOM
      1 CBE         -2.2090    -3.5050    -0.0260 c3         1 SD2       0.044900
      2 SBD         -3.9200    -2.8380    -0.2560 ss         1 SD2      -0.446000
      3 CBC         -3.5120    -1.0780    -0.6490 c3         1 SD2       0.062600
      4 CBB         -4.7910    -0.2140    -0.6850 c3         1 SD2      -0.074400
      5 CAY         -4.5540     1.2750    -1.0720 c3         1 SD2       0.030700
      6 CAZ         -5.8790     2.0980    -1.0760 c          1 SD2       0.593100
      7 OBA         -6.0720     3.0750    -0.3690 o          1 SD2      -0.607100
      8 NBF         -6.8550     1.6760    -1.9120 nt         1 SD2      -0.602000
      9 NAX         -3.5500     1.9210    -0.1940 ns         1 SD2      -0.480900
     10 CAS         -2.1900     1.9430    -0.4330 c          1 SD2       0.607100
     11 OAT         -1.6780     1.4610    -1.4360 o          1 SD2      -0.584100
     12 CAR         -1.4590     2.6330     0.7630 c5         1 SD2       0.028700
     13 CAU         -1.2520     4.1380     0.4340 c5         1 SD2      -0.086400
     14 CAV         -0.1030     4.5030     1.4060 c5         1 SD2      -0.096400
     15 CAW          0.8780     3.3190     1.2010 c5         1 SD2       0.108000
     16 NAQ         -0.0500     2.1910     0.9540 n          1 SD2      -0.403800
     17 CAG          0.2710     0.8410     1.2290 c          1 SD2       0.591100
     18 OAH         -0.6320     0.0480     1.4780 o          1 SD2      -0.586100
     19 CAF          1.7710     0.3910     1.1570 c3         1 SD2       0.059700
     20 NAA          1.9530    -0.9950     1.6670 ns         1 SD2      -0.490900
     21 CAB          1.5750    -2.1580     1.0200 c          1 SD2       0.627100
     22 OAC          1.0220    -2.1610    -0.0720 o          1 SD2      -0.557100
     23 CAD          1.9120    -3.4440     1.8000 c3         1 SD2      -0.037400
     24 SAE          1.0670    -4.9740     1.1390 sh         1 SD2      -0.356800
     25 CAI          2.4020     0.6030    -0.2500 c3         1 SD2      -0.030100
     26 CAJ          3.8320     0.0760    -0.3480 ca         1 SD2      -0.117300
     27 CAK          4.1290    -1.0360    -1.1600 ca         1 SD2      -0.066500
     28 CAM          5.4460    -1.5220    -1.2380 ca         1 SD2      -0.177500
     29 CAO          6.4700    -0.9010    -0.5090 ca         1 SD2       0.137100
     30 OAP          7.7430    -1.3800    -0.5920 oh         1 SD2      -0.534100
     31 CAN          6.1820     0.2100     0.2990 ca         1 SD2      -0.177500
     32 CAL          4.8660     0.6980     0.3800 ca         1 SD2      -0.066500
     33 HBE1        -1.7070    -2.9720     0.7910 h1         1 SD2       0.061700
     34 HBE2        -2.2550    -4.5740     0.2190 h1         1 SD2       0.061700
     35 HBE3        -1.6280    -3.3740    -0.9480 h1         1 SD2       0.061700
     36 HBC1        -2.8300    -0.7000     0.1220 h1         1 SD2       0.067200
     37 HBC2        -3.0010    -1.0350    -1.6200 h1         1 SD2       0.067200
     38 HBB1        -5.4930    -0.6670    -1.3950 hc         1 SD2       0.064200
     39 HBB2        -5.2700    -0.2550     0.3010 hc         1 SD2       0.064200
     40 HAY         -4.1810     1.3030    -2.1050 h1         1 SD2       0.085700
     41 HBF1        -6.7080     0.8730    -2.5060 hn         1 SD2       0.316000
     42 HBF2        -7.7290     2.1810    -1.9420 hn         1 SD2       0.316000
     43 HAX         -3.8790     2.3840     0.6460 hn         1 SD2       0.318500
     44 HAR         -2.0360     2.4900     1.6870 h1         1 SD2       0.067700
     45 HAU1        -0.9470     4.2890    -0.6100 hc         1 SD2       0.070200
     46 HAU2        -2.1560     4.7350     0.6010 hc         1 SD2       0.070200
     47 HAV1         0.3570     5.4710     1.1790 hc         1 SD2       0.055700
     48 HAV2        -0.4600     4.5430     2.4420 hc         1 SD2       0.055700
     49 HAW1         1.5200     3.4970     0.3290 h1         1 SD2       0.050700
     50 HAW2         1.5140     3.1620     2.0820 h1         1 SD2       0.050700
     51 HAF          2.3130     1.0420     1.8530 h1         1 SD2       0.053700
     52 HAA          2.4020    -1.1110     2.5680 hn         1 SD2       0.311500
     53 HAD1         3.0000    -3.5850     1.7670 h1         1 SD2       0.073200
     54 HAD2         1.6130    -3.3000     2.8460 h1         1 SD2       0.073200
     55 HAE          1.5930    -5.8420     2.0360 hs         1 SD2       0.180800
     56 HAI1         1.7650     0.1310    -1.0080 hc         1 SD2       0.076200
     57 HAI2         2.3990     1.6680    -0.5020 hc         1 SD2       0.076200
     58 HAK          3.3420    -1.5280    -1.7280 ha         1 SD2       0.118500
     59 HAM          5.6700    -2.3820    -1.8640 ha         1 SD2       0.120500
     60 HAP          8.3200    -0.8260    -0.0240 ho         1 SD2       0.463000
     61 HAN          6.9700     0.6990     0.8670 ha         1 SD2       0.120500
     62 HAL          4.6500     1.5600     1.0080 ha         1 SD2       0.118500
@<TRIPOS>BOND
     1     1     2 1   
     2     1    33 1   
     3     1    34 1   
     4     1    35 1   
     5     2     3 1   
     6     3     4 1   
     7     3    36 1   
     8     3    37 1   
     9     4     5 1   
    10     4    38 1   
    11     4    39 1   
    12     5     6 1   
    13     5     9 1   
    14     5    40 1   
    15     6     7 2   
    16     6     8 1   
    17     8    41 1   
    18     8    42 1   
    19     9    10 1   
    20     9    43 1   
    21    10    11 2   
    22    10    12 1   
    23    12    13 1   
    24    12    16 1   
    25    12    44 1   
    26    13    14 1   
    27    13    45 1   
    28    13    46 1   
    29    14    15 1   
    30    14    47 1   
    31    14    48 1   
    32    15    16 1   
    33    15    49 1   
    34    15    50 1   
    35    16    17 1   
    36    17    18 2   
    37    17    19 1   
    38    19    20 1   
    39    19    25 1   
    40    19    51 1   
    41    20    21 1   
    42    20    52 1   
    43    21    22 2   
    44    21    23 1   
    45    23    24 1   
    46    23    53 1   
    47    23    54 1   
    48    24    55 1   
    49    25    26 1   
    50    25    56 1   
    51    25    57 1   
    52    26    27 ar  
    53    26    32 ar  
    54    27    28 ar  
    55    27    58 1   
    56    28    29 ar  
    57    28    59 1   
    58    29    30 1   
    59    29    31 ar  
    60    30    60 1   
    61    31    32 ar  
    62    31    61 1   
    63    32    62 1   
@<TRIPOS>SUBSTRUCTURE
     1 SD2         1 TEMP              0 ****  ****    0 ROOT
