@<TRIPOS>MOLECULE
SD3
   17    16     1     0     0
SMALL
abcg2


@<TRIPOS>ATOM
      1 C           -2.2980    -0.0390     0.0270 c          1 SD3       0.724000
      2 N           -0.5040     1.6070    -0.4240 n8         1 SD3      -0.987200
      3 OXT         -2.7610    -0.8850     0.8160 o          1 SD3      -0.723500
      4 CA          -0.8340     0.3910     0.2920 c3         1 SD3       0.025500
      5 CB           0.0770    -0.8110    -0.0370 c3         1 SD3      -0.182400
      6 CG           1.4960    -0.5650     0.4080 c          1 SD3       0.594100
      7 OAD          3.6960    -0.2770    -0.3690 oh         1 SD3      -0.448100
      8 OD1          1.8220    -0.4820     1.5810 o          1 SD3      -0.591100
      9 ND2          2.3590    -0.3780    -0.6110 ns         1 SD3      -0.403400
     10 O           -2.8740     0.4620    -0.9560 o          1 SD3      -0.723500
     11 HN           0.4930     1.7820    -0.4080 hn         1 SD3       0.376500
     12 HNA         -0.7670     1.5010    -1.3960 hn         1 SD3       0.376500
     13 HA          -0.7370     0.5850     1.3650 h1         1 SD3       0.066700
     14 HB          -0.2810    -1.6950     0.4950 hc         1 SD3       0.067200
     15 HBA          0.0190    -1.0270    -1.1080 hc         1 SD3       0.067200
     16 HOAD         3.8930     0.6680    -0.3420 ho         1 SD3       0.434000
     17 HND2         2.1180    -0.6000    -1.5660 hn         1 SD3       0.326500
@<TRIPOS>BOND
     1     1     3 1   
     2     1     4 1   
     3     1    10 1   
     4     2     4 1   
     5     2    11 1   
     6     2    12 1   
     7     4     5 1   
     8     4    13 1   
     9     5     6 1   
    10     5    14 1   
    11     5    15 1   
    12     6     8 2   
    13     6     9 1   
    14     7     9 1   
    15     7    16 1   
    16     9    17 1   
@<TRIPOS>SUBSTRUCTURE
     1 SD3         1 TEMP              0 ****  ****    0 ROOT
