@<TRIPOS>MOLECULE
SD3
   17    16     1     0     0
SMALL
No Charge or Current Charge


@<TRIPOS>ATOM
      1 C           -2.4110    -0.1270     0.1930 c          1 SD3       0.724000
      2 N           -0.5760     1.6510    -0.4220 n8         1 SD3      -0.987200
      3 OXT         -3.0640    -0.1680     1.2280 o          1 SD3      -0.723500
      4 CA          -0.9010     0.3530     0.2740 c3         1 SD3       0.025500
      5 CB           0.0690    -0.7580    -0.2100 c3         1 SD3      -0.182400
      6 CG           1.4740    -0.6140     0.3820 c          1 SD3       0.594100
      7 OAD          3.8660    -0.3410    -0.1840 oh         1 SD3      -0.448100
      8 OD1          1.7130    -0.8350     1.5630 o          1 SD3      -0.591100
      9 ND2          2.4620    -0.2450    -0.5250 ns         1 SD3      -0.403400
     10 O           -2.8820    -0.3940    -0.9070 o          1 SD3      -0.723500
     11 HN           0.4370     1.8170    -0.4100 hn         1 SD3       0.376500
     12 HNA         -0.8090     1.5650    -1.4190 hn         1 SD3       0.376500
     13 HA          -0.7080     0.5060     1.3460 h1         1 SD3       0.066700
     14 HB          -0.3290    -1.7210     0.1330 hc         1 SD3       0.067200
     15 HBA          0.1050    -0.7590    -1.3060 hc         1 SD3       0.067200
     16 HOAD         4.2290     0.5390    -0.4460 ho         1 SD3       0.434000
     17 HND2         2.2420    -0.2320    -1.5210 hn         1 SD3       0.326500
@<TRIPOS>BOND
     1     1     3 1   
     2     1     4 1   
     3     1    10 1   
     4     2     4 1   
     5     2    11 1   
     6     2    12 1   
     7     4     5 1   
     8     4    13 1   
     9     5     6 1   
    10     5    14 1   
    11     5    15 1   
    12     6     8 2   
    13     6     9 1   
    14     7     9 1   
    15     7    16 1   
    16     9    17 1   
@<TRIPOS>SUBSTRUCTURE
     1 SD3         1 TEMP              0 ****  ****    0 ROOT
