@<TRIPOS>MOLECULE
SD4
   17    16     1     0     0
SMALL
No Charge or Current Charge


@<TRIPOS>ATOM
      1 C           91.3200    40.6670    54.8340 c          1 SD4       0.905600
      2 N           93.8380    41.0230    54.1140 n8         1 SD4      -0.888800
      3 OXT         90.7290    41.1150    55.8110 o          1 SD4      -0.834800
      4 CA          92.4290    41.5680    54.1360 c3         1 SD4       0.015500
      5 CB          91.9990    41.9630    52.6990 c3         1 SD4      -0.128400
      6 CG          92.7250    43.2170    52.2000 c          1 SD4       0.684100
      7 OD1         92.4740    44.3370    52.6310 o          1 SD4      -0.598100
      8 ND2         93.6570    43.0040    51.1870 ns         1 SD4      -0.462400
      9 O           91.1570    39.5180    54.4360 o          1 SD4      -0.834800
     10 H5          92.4580    42.4930    54.7290 h1         1 SD4       0.061700
     11 H6          90.9270    42.1900    52.7170 hc         1 SD4       0.060700
     12 H7          92.1790    41.1180    52.0240 hc         1 SD4       0.060700
     13 H8          95.1710    43.9450    50.4400 ho         1 SD4       0.396000
     14 H9          93.7260    42.0800    50.7650 hn         1 SD4       0.322500
     15 H1          94.1540    40.8600    55.0770 hn         1 SD4       0.326800
     16 OAD         94.1980    44.1030    50.4160 oh         1 SD4      -0.414100
     17 H2          93.8230    40.0840    53.7000 hn         1 SD4       0.326800
@<TRIPOS>BOND
     1     1     3 1   
     2     1     4 1   
     3     1     9 1   
     4     2     4 1   
     5     2    15 1   
     6     2    17 1   
     7     4     5 1   
     8     4    10 1   
     9     5     6 1   
    10     5    11 1   
    11     5    12 1   
    12     6     7 2   
    13     6     8 1   
    14     8    14 1   
    15     8    16 1   
    16    13    16 1   
@<TRIPOS>SUBSTRUCTURE
     1 SD4         1 TEMP              0 ****  ****    0 ROOT
