@<TRIPOS>MOLECULE
SD4
   17    16     1     0     0
SMALL
bcc


@<TRIPOS>ATOM
      1 C           91.4120    40.5900    54.7460 c          1 SD4       0.905600
      2 N           93.8220    41.0980    54.0580 n8         1 SD4      -0.888800
      3 OXT         90.2470    41.0280    54.8440 o          1 SD4      -0.834800
      4 CA          92.4560    41.5870    54.1700 c3         1 SD4       0.015500
      5 CB          91.9970    42.0930    52.8030 c3         1 SD4      -0.128400
      6 CG          92.8940    43.1940    52.2930 c          1 SD4       0.684100
      7 OD1         93.1000    44.2230    52.9130 o          1 SD4      -0.598100
      8 ND2         93.4640    42.9270    51.1000 ns         1 SD4      -0.462400
      9 O           91.8180    39.4580    55.0690 o          1 SD4      -0.834800
     10 H5          92.4740    42.4490    54.8450 h1         1 SD4       0.061700
     11 H6          90.9860    42.4950    52.8810 hc         1 SD4       0.060700
     12 H7          91.9490    41.2580    52.0960 hc         1 SD4       0.060700
     13 H8          95.0800    43.7610    50.6350 ho         1 SD4       0.396000
     14 H9          93.1610    42.1600    50.5170 hn         1 SD4       0.322500
     15 H1          94.1460    40.8300    54.9790 hn         1 SD4       0.326800
     16 OAD         94.1460    43.9040    50.4350 oh         1 SD4      -0.414100
     17 H2          93.8110    40.2310    53.5330 hn         1 SD4       0.326800
@<TRIPOS>BOND
     1     1     3 1   
     2     1     4 1   
     3     1     9 1   
     4     2     4 1   
     5     2    15 1   
     6     2    17 1   
     7     4     5 1   
     8     4    10 1   
     9     5     6 1   
    10     5    11 1   
    11     5    12 1   
    12     6     7 2   
    13     6     8 1   
    14     8    14 1   
    15     8    16 1   
    16    13    16 1   
@<TRIPOS>SUBSTRUCTURE
     1 SD4         1 TEMP              0 ****  ****    0 ROOT
