@<TRIPOS>MOLECULE
SD5
   50    53     1     0     0
SMALL
No Charge or Current Charge


@<TRIPOS>ATOM
      1 N01          5.2520     3.5640    -0.6360 nv         1 SD5      -1.065900
      2 C02          4.1820     2.8010    -0.4110 ca         1 SD5       0.616900
      3 C03          4.1780     1.7070     0.4550 ca         1 SD5      -0.204000
      4 C04          2.9860     0.9690     0.6370 ca         1 SD5      -0.074300
      5 C05          1.8470     1.4020    -0.1170 cp         1 SD5      -0.219500
      6 C06          1.9930     2.5410    -0.9490 ca         1 SD5       0.403900
      7 N07          3.1410     3.2340    -1.0970 nb         1 SD5      -0.735000
      8 C08          0.5150     0.7300    -0.0850 cp         1 SD5       0.246500
      9 C09         -0.6770     1.4560     0.0940 ca         1 SD5      -0.335000
     10 C10         -1.8910     0.7530     0.0920 ca         1 SD5       0.437900
     11 N11         -1.9110    -0.5780    -0.0820 nb         1 SD5      -0.337000
     12 C12         -0.7310    -1.1980    -0.2590 ca         1 SD5       0.442900
     13 N13          0.4720    -0.5960    -0.2800 nb         1 SD5      -0.276000
     14 N14         -0.7580    -2.6070    -0.4460 nh         1 SD5      -0.776300
     15 C15         -2.0180    -3.4000    -0.1960 c6         1 SD5       0.189300
     16 C16         -2.0070    -4.8010    -0.8760 c6         1 SD5       0.139100
     17 O17         -0.7920    -5.5180    -0.5660 os         1 SD5      -0.448000
     18 C18          0.3850    -4.8230    -1.0310 c6         1 SD5       0.139100
     19 C19          0.5090    -3.4220    -0.3620 c6         1 SD5       0.189300
     20 N20         -3.1430     1.3920     0.2700 nh         1 SD5      -0.782300
     21 C21         -4.2860     0.6740     0.9420 c6         1 SD5       0.185800
     22 C22         -5.6740     1.3000     0.6160 c6         1 SD5       0.139100
     23 O23         -5.6650     2.7270     0.8440 os         1 SD5      -0.443000
     24 C24         -4.6950     3.4060     0.0160 c6         1 SD5       0.139100
     25 C25         -3.2530     2.8920     0.3060 c6         1 SD5       0.185800
     26 C26          2.9680    -0.2140     1.6300 c3         1 SD5       0.361300
     27 F27          3.0610    -1.4040     0.9930 f          1 SD5      -0.108667
     28 F28          3.9960    -0.1690     2.5090 f          1 SD5      -0.108667
     29 F29          1.8400    -0.2450     2.3770 f          1 SD5      -0.108667
     30 HN01         5.0470     4.4480    -1.0870 hn         1 SD5       0.486500
     31 HN0A         5.9750     3.5820     0.0750 hn         1 SD5       0.486500
     32 H03          5.0920     1.4420     0.9770 ha         1 SD5       0.138000
     33 H06          1.1470     2.9010    -1.5340 h4         1 SD5       0.027100
     34 H09         -0.6370     2.5270     0.2520 ha         1 SD5       0.132000
     35 H15         -2.1640    -3.5360     0.8850 h1         1 SD5       0.066450
     36 H15A        -2.9020    -2.8660    -0.5760 h1         1 SD5       0.066450
     37 H16         -2.8700    -5.3880    -0.5320 h1         1 SD5       0.052200
     38 H16A        -2.0890    -4.6860    -1.9660 h1         1 SD5       0.052200
     39 H18          1.2750    -5.4250    -0.7990 h1         1 SD5       0.052200
     40 H18A         0.3280    -4.7090    -2.1230 h1         1 SD5       0.052200
     41 H19          1.3460    -2.9050    -0.8540 h1         1 SD5       0.066450
     42 H19A         0.7930    -3.5610     0.6920 h1         1 SD5       0.066450
     43 H21         -4.3270    -0.3820     0.6390 h1         1 SD5       0.060950
     44 H21A        -4.1430     0.6890     2.0320 h1         1 SD5       0.060950
     45 H22         -5.9330     1.1050    -0.4350 h1         1 SD5       0.054450
     46 H22A        -6.4470     0.8390     1.2460 h1         1 SD5       0.054450
     47 H24         -4.9440     3.2370    -1.0420 h1         1 SD5       0.054450
     48 H24A        -4.7500     4.4870     0.2080 h1         1 SD5       0.054450
     49 H25         -2.9360     3.2670     1.2910 h1         1 SD5       0.060950
     50 H25A        -2.5900     3.3440    -0.4460 h1         1 SD5       0.060950
@<TRIPOS>BOND
     1     1     2 1   
     2     1    30 1   
     3     1    31 1   
     4     2     3 ar  
     5     2     7 ar  
     6     3     4 ar  
     7     3    32 1   
     8     4     5 ar  
     9     4    26 1   
    10     5     6 ar  
    11     5     8 1   
    12     6     7 ar  
    13     6    33 1   
    14     8     9 ar  
    15     8    13 ar  
    16     9    10 ar  
    17     9    34 1   
    18    10    11 ar  
    19    10    20 1   
    20    11    12 ar  
    21    12    13 ar  
    22    12    14 1   
    23    14    15 1   
    24    14    19 1   
    25    15    16 1   
    26    15    35 1   
    27    15    36 1   
    28    16    17 1   
    29    16    37 1   
    30    16    38 1   
    31    17    18 1   
    32    18    19 1   
    33    18    39 1   
    34    18    40 1   
    35    19    41 1   
    36    19    42 1   
    37    20    21 1   
    38    20    25 1   
    39    21    22 1   
    40    21    43 1   
    41    21    44 1   
    42    22    23 1   
    43    22    45 1   
    44    22    46 1   
    45    23    24 1   
    46    24    25 1   
    47    24    47 1   
    48    24    48 1   
    49    25    49 1   
    50    25    50 1   
    51    26    27 1   
    52    26    28 1   
    53    26    29 1   
@<TRIPOS>SUBSTRUCTURE
     1 SD5         1 TEMP              0 ****  ****    0 ROOT
