@<TRIPOS>MOLECULE
SD5
   50    53     1     0     0
SMALL
bcc


@<TRIPOS>ATOM
      1 N01          5.2240     3.4310    -0.9130 nv         1 SD5      -0.955500
      2 C02          4.0900     2.7620    -0.6090 ca         1 SD5       0.682200
      3 C03          4.1030     1.7040     0.3220 ca         1 SD5      -0.287300
      4 C04          2.9400     1.0160     0.5710 ca         1 SD5      -0.074300
      5 C05          1.7600     1.3760    -0.1010 cp         1 SD5      -0.284800
      6 C06          1.8640     2.4470    -0.9780 ca         1 SD5       0.469200
      7 N07          2.9730     3.1230    -1.2340 nb         1 SD5      -0.735000
      8 C08          0.4560     0.6910     0.0280 cp         1 SD5       0.574800
      9 C09         -0.6870     1.4340     0.2460 ca         1 SD5      -0.483600
     10 C10         -1.8990     0.7130     0.3050 ca         1 SD5       0.766200
     11 N11         -1.8920    -0.6130     0.2000 nb         1 SD5      -0.863000
     12 C12         -0.7300    -1.2290    -0.0020 ca         1 SD5       0.968900
     13 N13          0.4580    -0.6310    -0.1110 nb         1 SD5      -0.802000
     14 N14         -0.7620    -2.5810    -0.1290 nh         1 SD5      -0.776300
     15 C15         -1.9600    -3.3540     0.1240 c6         1 SD5       0.189300
     16 C16         -2.0510    -4.4950    -0.8720 c6         1 SD5       0.115900
     17 O17         -0.8880    -5.2920    -0.8640 os         1 SD5      -0.401600
     18 C18          0.2550    -4.5220    -1.1670 c6         1 SD5       0.115900
     19 C19          0.4450    -3.3810    -0.1840 c6         1 SD5       0.189300
     20 N20         -3.1040     1.3120     0.4640 nh         1 SD5      -0.782300
     21 C21         -4.3010     0.5400     0.7510 c6         1 SD5       0.185800
     22 C22         -5.4990     1.1650     0.0640 c6         1 SD5       0.115900
     23 O23         -5.6520     2.5230     0.4110 os         1 SD5      -0.396600
     24 C24         -4.5050     3.2580     0.0550 c6         1 SD5       0.115900
     25 C25         -3.2540     2.7280     0.7360 c6         1 SD5       0.185800
     26 C26          2.9750    -0.0860     1.6000 c3         1 SD5       0.725200
     27 F27          3.1330    -1.2890     1.0430 f          1 SD5      -0.229967
     28 F28          3.9990     0.0720     2.4510 f          1 SD5      -0.229967
     29 F29          1.8700    -0.1160     2.3470 f          1 SD5      -0.229967
     30 HN01         5.1380     4.3040    -1.4050 hn         1 SD5       0.431300
     31 HN0A         6.0270     3.3410    -0.3150 hn         1 SD5       0.431300
     32 H03          5.0260     1.4670     0.8340 ha         1 SD5       0.156000
     33 H06          0.9820     2.7640    -1.5240 h4         1 SD5       0.027100
     34 H09         -0.6200     2.5000     0.3910 ha         1 SD5       0.150000
     35 H15         -1.9420    -3.7520     1.1470 h1         1 SD5       0.066450
     36 H15A        -2.8380    -2.7190     0.0340 h1         1 SD5       0.066450
     37 H16         -2.8920    -5.1410    -0.6190 h1         1 SD5       0.052200
     38 H16A        -2.2290    -4.0850    -1.8760 h1         1 SD5       0.052200
     39 H18          1.1180    -5.1880    -1.1300 h1         1 SD5       0.052200
     40 H18A         0.1840    -4.1150    -2.1860 h1         1 SD5       0.052200
     41 H19          1.2840    -2.7650    -0.4950 h1         1 SD5       0.066450
     42 H19A         0.6770    -3.7810     0.8110 h1         1 SD5       0.066450
     43 H21         -4.1710    -0.4810     0.4030 h1         1 SD5       0.060950
     44 H21A        -4.4680     0.5040     1.8350 h1         1 SD5       0.060950
     45 H22         -5.3930     1.0560    -1.0250 h1         1 SD5       0.054450
     46 H22A        -6.4080     0.6440     0.3680 h1         1 SD5       0.054450
     47 H24         -4.3570     3.2360    -1.0340 h1         1 SD5       0.054450
     48 H24A        -4.6700     4.2940     0.3520 h1         1 SD5       0.054450
     49 H25         -3.3090     2.9040     1.8170 h1         1 SD5       0.060950
     50 H25A        -2.4060     3.2910     0.3530 h1         1 SD5       0.060950
@<TRIPOS>BOND
     1     1     2 1   
     2     1    30 1   
     3     1    31 1   
     4     2     3 ar  
     5     2     7 ar  
     6     3     4 ar  
     7     3    32 1   
     8     4     5 ar  
     9     4    26 1   
    10     5     6 ar  
    11     5     8 1   
    12     6     7 ar  
    13     6    33 1   
    14     8     9 ar  
    15     8    13 ar  
    16     9    10 ar  
    17     9    34 1   
    18    10    11 ar  
    19    10    20 1   
    20    11    12 ar  
    21    12    13 ar  
    22    12    14 1   
    23    14    15 1   
    24    14    19 1   
    25    15    16 1   
    26    15    35 1   
    27    15    36 1   
    28    16    17 1   
    29    16    37 1   
    30    16    38 1   
    31    17    18 1   
    32    18    19 1   
    33    18    39 1   
    34    18    40 1   
    35    19    41 1   
    36    19    42 1   
    37    20    21 1   
    38    20    25 1   
    39    21    22 1   
    40    21    43 1   
    41    21    44 1   
    42    22    23 1   
    43    22    45 1   
    44    22    46 1   
    45    23    24 1   
    46    24    25 1   
    47    24    47 1   
    48    24    48 1   
    49    25    49 1   
    50    25    50 1   
    51    26    27 1   
    52    26    28 1   
    53    26    29 1   
@<TRIPOS>SUBSTRUCTURE
     1 SD5         1 TEMP              0 ****  ****    0 ROOT
