@<TRIPOS>MOLECULE
SD7
   38    39     1     0     0
SMALL
No Charge or Current Charge


@<TRIPOS>ATOM
      1 C7          18.4470    20.8950    -8.5060 ca         1 SD7      -0.068300
      2 N           20.7960    15.6770    -6.3510 n2         1 SD7      -0.842100
      3 C           18.4710    22.3720    -3.5570 c3         1 SD7       0.149900
      4 O           18.9120    21.2350    -4.3200 os         1 SD7      -0.346100
      5 C1          18.7430    21.1590    -5.6890 ca         1 SD7       0.161100
      6 C10         20.0870    22.5180   -10.6030 c3         1 SD7      -0.080100
      7 C11         19.4870    20.6800   -12.3070 c3         1 SD7       0.152800
      8 C12         17.9790    22.0490    -7.8400 ca         1 SD7      -0.074000
      9 C13         18.1250    22.1840    -6.4430 ca         1 SD7      -0.182000
     10 C2          19.2000    20.0170    -6.3640 ca         1 SD7      -0.185000
     11 C3          20.1530    17.8260    -7.1880 cc         1 SD7      -0.180000
     12 C4          20.7480    16.4990    -7.3140 ce         1 SD7       0.690500
     13 C5          19.6020    18.6260    -8.1770 cd         1 SD7      -0.148200
     14 C6          19.0560    19.8880    -7.7300 ca         1 SD7      -0.044800
     15 C8          18.2870    20.7640   -10.0190 c3         1 SD7      -0.027100
     16 C9          19.5950    21.0620   -10.8050 c3         1 SD7      -0.053700
     17 N1          21.1550    16.0600    -8.5170 nv         1 SD7      -1.040200
     18 S           19.9980    18.6170    -5.5910 ss         1 SD7       0.110400
     19 H3          20.3600    16.1250    -5.5360 hn         1 SD7       0.389400
     20 H           18.7020    22.2290    -2.4940 h1         1 SD7       0.044700
     21 H1          18.9750    23.2870    -3.8940 h1         1 SD7       0.044700
     22 H2          17.3870    22.5090    -3.6530 h1         1 SD7       0.044700
     23 H11         20.3120    22.7110    -9.5470 hc         1 SD7       0.037700
     24 H10         21.0030    22.6990   -11.1770 hc         1 SD7       0.037700
     25 H12         19.3290    23.2400   -10.9280 hc         1 SD7       0.037700
     26 H14         19.2210    19.6170   -12.3940 h1         1 SD7       0.027200
     27 H13         20.4640    20.8220   -12.7890 h1         1 SD7       0.027200
     28 H17         17.5050    22.8470    -8.4060 ha         1 SD7       0.116000
     29 H18         17.7550    23.0870    -5.9670 ha         1 SD7       0.119000
     30 H6          19.5670    18.3090    -9.2160 ha         1 SD7       0.207000
     31 H8          17.4940    21.4360   -10.3700 hc         1 SD7       0.048700
     32 H7          17.9420    19.7520   -10.2630 hc         1 SD7       0.048700
     33 H9          20.3750    20.4120   -10.3880 hc         1 SD7       0.042700
     34 H19         21.7230    15.2240    -8.4660 hn         1 SD7       0.475000
     35 H5          21.4790    16.7750    -9.1560 hn         1 SD7       0.475000
     36 H20         18.4210    21.1200   -14.0100 hn         1 SD7       0.392500
     37 H15         17.5540    21.2810   -12.6590 hn         1 SD7       0.392500
     38 N2          18.4830    21.4740   -13.0470 n8         1 SD7      -1.002200
@<TRIPOS>BOND
     1     1     8 ar  
     2     1    14 ar  
     3     1    15 1   
     4     2    12 2   
     5     2    19 1   
     6     3     4 1   
     7     3    20 1   
     8     3    21 1   
     9     3    22 1   
    10     4     5 1   
    11     5     9 ar  
    12     5    10 ar  
    13     6    16 1   
    14     6    23 1   
    15     6    24 1   
    16     6    25 1   
    17     7    16 1   
    18     7    26 1   
    19     7    27 1   
    20     7    38 1   
    21     8     9 ar  
    22     8    28 1   
    23     9    29 1   
    24    10    14 ar  
    25    10    18 1   
    26    11    12 1   
    27    11    13 2   
    28    11    18 1   
    29    12    17 1   
    30    13    14 1   
    31    13    30 1   
    32    15    16 1   
    33    15    31 1   
    34    15    32 1   
    35    16    33 1   
    36    17    34 1   
    37    17    35 1   
    38    36    38 1   
    39    37    38 1   
@<TRIPOS>SUBSTRUCTURE
     1 SD7         1 TEMP              0 ****  ****    0 ROOT
