@<TRIPOS>MOLECULE
SD7
   38    39     1     0     0
SMALL
abcg2


@<TRIPOS>ATOM
      1 C7          18.4180    20.8980    -8.5160 ca         1 SD7      -0.068300
      2 N           20.7480    15.6720    -6.3300 n2         1 SD7      -0.842100
      3 C           18.5140    22.3610    -3.6300 c3         1 SD7       0.149900
      4 O           18.9350    21.1990    -4.3460 os         1 SD7      -0.346100
      5 C1          18.7320    21.1710    -5.6880 ca         1 SD7       0.161100
      6 C10         20.0920    22.4800   -10.5940 c3         1 SD7      -0.080100
      7 C11         19.4700    20.6470   -12.2470 c3         1 SD7       0.152800
      8 C12         17.9720    22.0120    -7.8290 ca         1 SD7      -0.074000
      9 C13         18.1200    22.1630    -6.4390 ca         1 SD7      -0.182000
     10 C2          19.1810    20.0290    -6.3620 ca         1 SD7      -0.185000
     11 C3          20.0990    17.8760    -7.1880 cc         1 SD7      -0.180000
     12 C4          20.7080    16.5340    -7.2860 ce         1 SD7       0.690500
     13 C5          19.5810    18.6290    -8.1970 cd         1 SD7      -0.148200
     14 C6          19.0380    19.8810    -7.7560 ca         1 SD7      -0.044800
     15 C8          18.2900    20.7790   -10.0100 c3         1 SD7      -0.027100
     16 C9          19.6070    21.0420   -10.7720 c3         1 SD7      -0.053700
     17 N1          21.2080    16.2210    -8.5190 nv         1 SD7      -1.040200
     18 S           19.9650    18.6620    -5.6310 ss         1 SD7       0.110400
     19 H3          20.2510    16.0120    -5.5110 hn         1 SD7       0.389400
     20 H           18.7820    22.1840    -2.5910 h1         1 SD7       0.044700
     21 H1          19.0280    23.2520    -3.9980 h1         1 SD7       0.044700
     22 H2          17.4340    22.5010    -3.7140 h1         1 SD7       0.044700
     23 H11         20.2700    22.7030    -9.5410 hc         1 SD7       0.037700
     24 H10         21.0260    22.6420   -11.1360 hc         1 SD7       0.037700
     25 H12         19.3540    23.1920   -10.9690 hc         1 SD7       0.037700
     26 H14         19.2700    19.5670   -12.2940 h1         1 SD7       0.027200
     27 H13         20.4280    20.8160   -12.7440 h1         1 SD7       0.027200
     28 H17         17.4910    22.8100    -8.3820 ha         1 SD7       0.116000
     29 H18         17.7500    23.0600    -5.9650 ha         1 SD7       0.119000
     30 H6          19.5610    18.2970    -9.2250 ha         1 SD7       0.207000
     31 H8          17.5330    21.4880   -10.3540 hc         1 SD7       0.048700
     32 H7          17.9320    19.7780   -10.2700 hc         1 SD7       0.048700
     33 H9          20.3690    20.3750   -10.3540 hc         1 SD7       0.042700
     34 H19         21.7310    15.3600    -8.5860 hn         1 SD7       0.475000
     35 H5          21.5150    16.9670    -9.1210 hn         1 SD7       0.475000
     36 H20         18.5100    21.2370   -13.9530 hn         1 SD7       0.392500
     37 H15         17.5240    21.1480   -12.6730 hn         1 SD7       0.392500
     38 N2          18.4540    21.4360   -12.9600 n8         1 SD7      -1.002200
@<TRIPOS>BOND
     1     1     8 ar  
     2     1    14 ar  
     3     1    15 1   
     4     2    12 2   
     5     2    19 1   
     6     3     4 1   
     7     3    20 1   
     8     3    21 1   
     9     3    22 1   
    10     4     5 1   
    11     5     9 ar  
    12     5    10 ar  
    13     6    16 1   
    14     6    23 1   
    15     6    24 1   
    16     6    25 1   
    17     7    16 1   
    18     7    26 1   
    19     7    27 1   
    20     7    38 1   
    21     8     9 ar  
    22     8    28 1   
    23     9    29 1   
    24    10    14 ar  
    25    10    18 1   
    26    11    12 1   
    27    11    13 2   
    28    11    18 1   
    29    12    17 1   
    30    13    14 1   
    31    13    30 1   
    32    15    16 1   
    33    15    31 1   
    34    15    32 1   
    35    16    33 1   
    36    17    34 1   
    37    17    35 1   
    38    36    38 1   
    39    37    38 1   
@<TRIPOS>SUBSTRUCTURE
     1 SD7         1 TEMP              0 ****  ****    0 ROOT
