@<TRIPOS>MOLECULE
SD8
   46    49     1     0     0
SMALL
No Charge or Current Charge


@<TRIPOS>ATOM
      1 C1          41.3700     1.6970   122.9480 c2         1 SD8       0.690200
      2 C2          40.4930     0.4920   122.6360 c6         1 SD8      -0.060700
      3 C3          42.3810    -0.8370   124.1510 ca         1 SD8      -0.169000
      4 C4          43.0230    -1.9860   124.6470 ca         1 SD8      -0.066000
      5 C5          44.3900    -1.9530   124.9660 ca         1 SD8      -0.125000
      6 C6          45.1190    -0.7670   124.7970 ca         1 SD8      -0.094000
      7 C7          44.4790     0.3850   124.3090 ca         1 SD8      -0.097000
      8 C8          43.1110     0.3660   123.9780 ca         1 SD8       0.188400
      9 C9          39.6330     3.2630   121.9640 c6         1 SD8       0.217300
     10 C10         38.6530     3.6200   123.1280 c6         1 SD8       0.189300
     11 C11         40.6500     4.5850   124.3760 c6         1 SD8       0.189300
     12 C12         41.5330     4.1980   123.1490 c6         1 SD8       0.217300
     13 C13         38.3320     5.4680   124.8150 cc         1 SD8       0.706300
     14 C14         36.4940     6.5990   125.9100 cc         1 SD8      -0.224000
     15 C15         37.7450     6.9640   126.3720 cd         1 SD8       0.280500
     16 C16         37.8830     7.9930   127.4730 c          1 SD8       0.522600
     17 C17         36.6860     9.5280   128.9470 c3         1 SD8       0.169600
     18 C18         37.0230    10.8710   128.2680 c3         1 SD8      -0.123100
     19 N1          42.5350     1.5740   123.5150 ne         1 SD8      -0.697100
     20 N2          40.9980     2.9660   122.4910 nh         1 SD8      -0.754600
     21 N3          39.1800     4.6940   124.0450 nh         1 SD8      -0.757300
     22 N4          38.7970     6.2990   125.7280 nd         1 SD8      -0.685000
     23 O1          38.9680     8.3460   127.9270 o          1 SD8      -0.456000
     24 O2          36.6840     8.4870   127.9490 os         1 SD8      -0.449100
     25 S1          40.6420    -0.9390   123.7730 ss         1 SD8      -0.140000
     26 S2          36.5930     5.4070   124.6490 ss         1 SD8      -0.098400
     27 H21         39.4320     0.7610   122.6360 h1         1 SD8       0.089200
     28 H22         40.7510     0.1380   121.6300 h1         1 SD8       0.089200
     29 H4          42.4610    -2.9080   124.7830 ha         1 SD8       0.119000
     30 H5          44.8810    -2.8460   125.3470 ha         1 SD8       0.115000
     31 H6          46.1780    -0.7370   125.0460 ha         1 SD8       0.114000
     32 H7          45.0480     1.3030   124.1860 ha         1 SD8       0.125000
     33 H91         39.2310     2.4460   121.3480 h1         1 SD8       0.069950
     34 H92         39.6820     4.1380   121.2990 h1         1 SD8       0.069950
     35 H101        37.7010     3.9250   122.6700 h1         1 SD8       0.064200
     36 H102        38.4490     2.7100   123.7110 h1         1 SD8       0.064200
     37 H111        40.7930     3.8300   125.1620 h1         1 SD8       0.064200
     38 H112        41.0360     5.5340   124.7730 h1         1 SD8       0.064200
     39 H121        41.5070     5.0390   122.4410 h1         1 SD8       0.069950
     40 H122        42.5830     4.0910   123.4560 h1         1 SD8       0.069950
     41 H14         35.5250     6.9580   126.2340 h4         1 SD8       0.174000
     42 H171        37.4000     9.3140   129.7540 h1         1 SD8       0.059200
     43 H172        35.6890     9.6090   129.4000 h1         1 SD8       0.059200
     44 H181        36.9460    11.6890   128.9940 hc         1 SD8       0.048367
     45 H182        38.0430    10.8710   127.8660 hc         1 SD8       0.048367
     46 H183        36.3240    11.0740   127.4480 hc         1 SD8       0.048367
@<TRIPOS>BOND
     1     1     2 1   
     2     1    19 2   
     3     1    20 1   
     4     2    25 1   
     5     2    27 1   
     6     2    28 1   
     7     3     4 ar  
     8     3     8 ar  
     9     3    25 1   
    10     4     5 ar  
    11     4    29 1   
    12     5     6 ar  
    13     5    30 1   
    14     6     7 ar  
    15     6    31 1   
    16     7     8 ar  
    17     7    32 1   
    18     8    19 1   
    19     9    10 1   
    20     9    20 1   
    21     9    33 1   
    22     9    34 1   
    23    10    21 1   
    24    10    35 1   
    25    10    36 1   
    26    11    12 1   
    27    11    21 1   
    28    11    37 1   
    29    11    38 1   
    30    12    20 1   
    31    12    39 1   
    32    12    40 1   
    33    13    21 1   
    34    13    22 2   
    35    13    26 1   
    36    14    15 2   
    37    14    26 1   
    38    14    41 1   
    39    15    16 1   
    40    15    22 1   
    41    16    23 2   
    42    16    24 1   
    43    17    18 1   
    44    17    24 1   
    45    17    42 1   
    46    17    43 1   
    47    18    44 1   
    48    18    45 1   
    49    18    46 1   
@<TRIPOS>SUBSTRUCTURE
     1 SD8         1 TEMP              0 ****  ****    0 ROOT
