@<TRIPOS>MOLECULE
SD8
   46    49     1     0     0
SMALL
abcg2


@<TRIPOS>ATOM
      1 C1          41.4260     1.6640   123.1130 c2         1 SD8       0.690200
      2 C2          40.7370     0.4510   122.5360 c6         1 SD8      -0.060700
      3 C3          42.5220    -0.8620   124.0050 ca         1 SD8      -0.169000
      4 C4          43.1950    -2.0320   124.3380 ca         1 SD8      -0.066000
      5 C5          44.5680    -2.0180   124.5280 ca         1 SD8      -0.125000
      6 C6          45.2680    -0.8260   124.3680 ca         1 SD8      -0.094000
      7 C7          44.5960     0.3410   124.0500 ca         1 SD8      -0.097000
      8 C8          43.2070     0.3590   123.8760 ca         1 SD8       0.188400
      9 C9          39.5780     3.1840   122.3740 c6         1 SD8       0.217300
     10 C10         38.5430     3.6210   123.3990 c6         1 SD8       0.189300
     11 C11         40.3960     4.4900   124.7830 c6         1 SD8       0.189300
     12 C12         41.3660     4.0340   123.7090 c6         1 SD8       0.217300
     13 C13         38.2210     5.5060   124.8990 cc         1 SD8       0.706300
     14 C14         36.3140     6.7870   125.7100 cc         1 SD8      -0.224000
     15 C15         37.5100     7.0420   126.2980 cd         1 SD8       0.280500
     16 C16         37.7370     8.0270   127.3770 c          1 SD8       0.522600
     17 C17         36.6850     9.7140   128.6760 c3         1 SD8       0.169600
     18 C18         37.1970    11.0270   128.1250 c3         1 SD8      -0.123100
     19 N1          42.5900     1.5730   123.6640 ne         1 SD8      -0.697100
     20 N2          40.8330     2.8730   123.0220 nh         1 SD8      -0.754600
     21 N3          39.0670     4.6970   124.2220 nh         1 SD8      -0.757300
     22 N4          38.5760     6.3160   125.8480 nd         1 SD8      -0.685000
     23 O1          38.8020     8.1880   127.9170 o          1 SD8      -0.456000
     24 O2          36.6310     8.6940   127.6680 os         1 SD8      -0.449100
     25 S1          40.7820    -0.8620   123.7750 ss         1 SD8      -0.140000
     26 S2          36.5080     5.5630   124.5210 ss         1 SD8      -0.098400
     27 H21         39.6890     0.5950   122.2980 h1         1 SD8       0.089200
     28 H22         41.2500     0.1280   121.6280 h1         1 SD8       0.089200
     29 H4          42.6420    -2.9580   124.4370 ha         1 SD8       0.119000
     30 H5          45.0870    -2.9310   124.7860 ha         1 SD8       0.115000
     31 H6          46.3430    -0.8060   124.5000 ha         1 SD8       0.114000
     32 H7          45.1380     1.2720   123.9440 ha         1 SD8       0.125000
     33 H91         39.1870     2.3460   121.8070 h1         1 SD8       0.069950
     34 H92         39.7510     3.9950   121.6610 h1         1 SD8       0.069950
     35 H101        37.6650     3.9690   122.8510 h1         1 SD8       0.064200
     36 H102        38.2410     2.7640   124.0130 h1         1 SD8       0.064200
     37 H111        40.3570     3.7490   125.5910 h1         1 SD8       0.064200
     38 H112        40.7480     5.4270   125.2100 h1         1 SD8       0.064200
     39 H121        41.5210     4.8340   122.9800 h1         1 SD8       0.069950
     40 H122        42.3230     3.7900   124.1590 h1         1 SD8       0.069950
     41 H14         35.3490     7.2260   125.9020 h4         1 SD8       0.174000
     42 H171        37.2860     9.3780   129.5220 h1         1 SD8       0.059200
     43 H172        35.6560     9.8170   129.0160 h1         1 SD8       0.059200
     44 H181        37.1320    11.7890   128.9030 hc         1 SD8       0.048367
     45 H182        38.2370    10.9620   127.8090 hc         1 SD8       0.048367
     46 H183        36.5960    11.3630   127.2800 hc         1 SD8       0.048367
@<TRIPOS>BOND
     1     1     2 1   
     2     1    19 2   
     3     1    20 1   
     4     2    25 1   
     5     2    27 1   
     6     2    28 1   
     7     3     4 ar  
     8     3     8 ar  
     9     3    25 1   
    10     4     5 ar  
    11     4    29 1   
    12     5     6 ar  
    13     5    30 1   
    14     6     7 ar  
    15     6    31 1   
    16     7     8 ar  
    17     7    32 1   
    18     8    19 1   
    19     9    10 1   
    20     9    20 1   
    21     9    33 1   
    22     9    34 1   
    23    10    21 1   
    24    10    35 1   
    25    10    36 1   
    26    11    12 1   
    27    11    21 1   
    28    11    37 1   
    29    11    38 1   
    30    12    20 1   
    31    12    39 1   
    32    12    40 1   
    33    13    21 1   
    34    13    22 2   
    35    13    26 1   
    36    14    15 2   
    37    14    26 1   
    38    14    41 1   
    39    15    16 1   
    40    15    22 1   
    41    16    23 2   
    42    16    24 1   
    43    17    18 1   
    44    17    24 1   
    45    17    42 1   
    46    17    43 1   
    47    18    44 1   
    48    18    45 1   
    49    18    46 1   
@<TRIPOS>SUBSTRUCTURE
     1 SD8         1 TEMP              0 ****  ****    0 ROOT
