@<TRIPOS>MOLECULE
SDA
   19    19     1     0     0
SMALL
No Charge or Current Charge


@<TRIPOS>ATOM
      1 S1          -2.6270    -0.0160     0.0280 sy         1 SDA       1.141600
      2 N13         -2.9830     0.0140    -1.5590 n8         1 SDA      -1.004100
      3 O12         -3.1610     1.2480     0.5280 o          1 SDA      -0.545000
      4 O11         -3.1320    -1.3120     0.4730 o          1 SDA      -0.545000
      5 C2          -0.8410     0.0040     0.0240 ca         1 SDA      -0.335500
      6 C7          -0.1230    -1.2080    -0.0080 ca         1 SDA       0.056000
      7 C6           1.2820    -1.1940    -0.0150 ca         1 SDA       0.003000
      8 Cl8          2.1460    -2.7390    -0.0500 cl         1 SDA      -0.196500
      9 C5           1.9830     0.0360     0.0060 ca         1 SDA       0.401000
     10 N10          3.3650     0.0510    -0.0010 nv         1 SDA      -1.081000
     11 C4           1.2550     1.2490     0.0370 ca         1 SDA       0.003000
     12 Cl9          2.0840     2.8130     0.0690 cl         1 SDA      -0.196500
     13 C3          -0.1500     1.2310     0.0440 ca         1 SDA       0.056000
     14 H131        -3.6130    -0.7830    -1.6190 hn         1 SDA       0.473000
     15 H132        -3.6310     0.7980    -1.5850 hn         1 SDA       0.473000
     16 H7          -0.6460    -2.1630    -0.0280 ha         1 SDA       0.152500
     17 H101         3.8470     0.9230     0.2110 hn         1 SDA       0.495000
     18 H102         3.8700    -0.8160     0.1730 hn         1 SDA       0.495000
     19 H3          -0.6940     2.1740     0.0650 ha         1 SDA       0.152500
@<TRIPOS>BOND
     1     1     2 1   
     2     1     3 2   
     3     1     4 2   
     4     1     5 1   
     5     2    14 1   
     6     2    15 1   
     7     5     6 ar  
     8     5    13 ar  
     9     6     7 ar  
    10     6    16 1   
    11     7     8 1   
    12     7     9 ar  
    13     9    10 1   
    14     9    11 ar  
    15    10    17 1   
    16    10    18 1   
    17    11    12 1   
    18    11    13 ar  
    19    13    19 1   
@<TRIPOS>SUBSTRUCTURE
     1 SDA         1 TEMP              0 ****  ****    0 ROOT
