@<TRIPOS>MOLECULE
SDA
   19    19     1     0     0
SMALL
bcc


@<TRIPOS>ATOM
      1 S1          -2.6190    -0.0300     0.0980 sy         1 SDA       1.283200
      2 N13         -2.9950     0.3500    -1.4650 n8         1 SDA      -0.893700
      3 O12         -3.0850     1.0950     0.8960 o          1 SDA      -0.615800
      4 O11         -3.0450    -1.3700     0.4790 o          1 SDA      -0.615800
      5 C2          -0.8600    -0.0260     0.0430 ca         1 SDA      -0.335500
      6 C7          -0.1600    -1.2210     0.0930 ca         1 SDA       0.038000
      7 C6           1.2180    -1.1930     0.0660 ca         1 SDA      -0.088600
      8 CL8          2.0870    -2.6880     0.1270 cl         1 SDA      -0.104900
      9 C5           1.9520     0.0070    -0.0020 ca         1 SDA       0.262600
     10 N10          3.2970     0.0230    -0.0520 nv         1 SDA      -0.832200
     11 C4           1.1870     1.1920    -0.0520 ca         1 SDA      -0.088600
     12 CL9          2.0220     2.7050    -0.1400 cl         1 SDA      -0.104900
     13 C3          -0.1880     1.1880    -0.0290 ca         1 SDA       0.038000
     14 H131        -2.8140    -0.4130    -2.1100 hn         1 SDA       0.417800
     15 H132        -3.9590     0.6600    -1.5500 hn         1 SDA       0.417800
     16 H7          -0.6760    -2.1690     0.1560 ha         1 SDA       0.170500
     17 H101         3.7870     0.8860     0.1150 hn         1 SDA       0.439800
     18 H102         3.8100    -0.8100     0.1860 hn         1 SDA       0.439800
     19 H3          -0.7270     2.1240    -0.0670 ha         1 SDA       0.170500
@<TRIPOS>BOND
     1     1     2 1   
     2     1     3 2   
     3     1     4 2   
     4     1     5 1   
     5     2    14 1   
     6     2    15 1   
     7     5     6 ar  
     8     5    13 ar  
     9     6     7 ar  
    10     6    16 1   
    11     7     8 1   
    12     7     9 ar  
    13     9    10 1   
    14     9    11 ar  
    15    10    17 1   
    16    10    18 1   
    17    11    12 1   
    18    11    13 ar  
    19    13    19 1   
@<TRIPOS>SUBSTRUCTURE
     1 SDA         1 TEMP              0 ****  ****    0 ROOT
