@<TRIPOS>MOLECULE
SDB
   25    25     1     0     0
SMALL
abcg2


@<TRIPOS>ATOM
      1 O           -2.2040    -1.9960    -0.3310 o          1 SDB      -0.725000
      2 C           -2.6190    -0.8690     0.0080 c          1 SDB       0.716000
      3 CA1         -1.5620     0.1790     0.4170 c6         1 SDB       0.072500
      4 CB1         -1.7290     1.5110    -0.3000 c6         1 SDB      -0.103400
      5 CG          -0.5260     2.3980    -0.0010 c6         1 SDB       0.120800
      6 NE           0.7450     1.7650    -0.2870 n2         1 SDB      -0.730900
      7 N1          -0.2240    -0.3200     0.1800 nu         1 SDB      -0.911400
      8 C1           0.7880     0.4870    -0.2100 c2         1 SDB       0.582200
      9 CA           2.1220    -0.1960    -0.5080 c3         1 SDB       0.135200
     10 N            2.0670    -1.5760    -0.9430 n8         1 SDB      -1.016200
     11 CB           2.9960    -0.0650     0.7340 c3         1 SDB       0.162600
     12 OG           4.2930    -0.5310     0.4500 oh         1 SDB      -0.651000
     13 OXT         -3.8020    -0.4920     0.0760 o          1 SDB      -0.725000
     14 HA1         -1.6960     0.3570     1.4940 h1         1 SDB       0.038700
     15 HB11        -1.8010     1.3460    -1.3800 hc         1 SDB       0.050700
     16 HB12        -2.6530     1.9920     0.0180 hc         1 SDB       0.050700
     17 H1          -0.1820    -1.3030    -0.0450 hn         1 SDB       0.497000
     18 HG1C        -0.5940     3.3200    -0.5860 h1         1 SDB       0.027200
     19 HG2C        -0.5600     2.7120     1.0500 h1         1 SDB       0.027200
     20 HA           2.5830     0.3940    -1.3050 h1         1 SDB       0.083700
     21 HN1          1.7680    -2.1950    -0.2000 hn         1 SDB       0.409500
     22 HN2          1.4310    -1.6960    -1.7200 hn         1 SDB       0.409500
     23 HB1C         2.9990     0.9880     1.0350 h1         1 SDB       0.026700
     24 HB2C         2.5330    -0.6320     1.5560 h1         1 SDB       0.026700
     25 HG           4.8440    -0.3560     1.2170 ho         1 SDB       0.424000
@<TRIPOS>BOND
     1     1     2 1   
     2     2     3 1   
     3     2    13 1   
     4     3     4 1   
     5     3     7 1   
     6     3    14 1   
     7     4     5 1   
     8     4    15 1   
     9     4    16 1   
    10     5     6 1   
    11     5    18 1   
    12     5    19 1   
    13     6     8 2   
    14     7     8 1   
    15     7    17 1   
    16     8     9 1   
    17     9    10 1   
    18     9    11 1   
    19     9    20 1   
    20    10    21 1   
    21    10    22 1   
    22    11    12 1   
    23    11    23 1   
    24    11    24 1   
    25    12    25 1   
@<TRIPOS>SUBSTRUCTURE
     1 SDB         1 TEMP              0 ****  ****    0 ROOT
