@<TRIPOS>MOLECULE
SDB
   25    25     1     0     0
SMALL
No Charge or Current Charge


@<TRIPOS>ATOM
      1 O           -2.4450    -1.8280    -0.4430 o          1 SDB      -0.725000
      2 C           -2.7130    -0.8490     0.2470 c          1 SDB       0.716000
      3 CA1         -1.5680     0.2340     0.4400 c6         1 SDB       0.072500
      4 CB1         -1.8140     1.4920    -0.4160 c6         1 SDB      -0.103400
      5 CG          -0.6390     2.4780    -0.2470 c6         1 SDB       0.120800
      6 NE           0.6900     1.8490    -0.4300 n2         1 SDB      -0.730900
      7 N1          -0.1800    -0.2410     0.1320 nu         1 SDB      -0.911400
      8 C1           0.8720     0.5810    -0.2600 c2         1 SDB       0.582200
      9 CA           2.2490    -0.1120    -0.4770 c3         1 SDB       0.135200
     10 N            2.2120    -1.4350    -1.2300 n8         1 SDB      -1.016200
     11 CB           2.9880    -0.2240     0.8920 c3         1 SDB       0.162600
     12 OG           4.3510    -0.6630     0.7300 oh         1 SDB      -0.651000
     13 OXT         -3.5540    -0.9200     1.1350 o          1 SDB      -0.725000
     14 HA1         -1.6060     0.5420     1.4960 h1         1 SDB       0.038700
     15 HB11        -1.9100     1.2090    -1.4740 hc         1 SDB       0.050700
     16 HB12        -2.7590     1.9730    -0.1290 hc         1 SDB       0.050700
     17 H1          -0.0760    -1.2260    -0.1020 hn         1 SDB       0.497000
     18 HG1C        -0.7490     3.2890    -0.9810 h1         1 SDB       0.027200
     19 HG2C        -0.6740     2.9310     0.7550 h1         1 SDB       0.027200
     20 HA           2.8370     0.5830    -1.0930 h1         1 SDB       0.083700
     21 HN1          1.7880    -2.1620    -0.6430 hn         1 SDB       0.409500
     22 HN2          1.5780    -1.3510    -2.0350 hn         1 SDB       0.409500
     23 HB1C         2.9720     0.7590     1.3820 h1         1 SDB       0.026700
     24 HB2C         2.4400    -0.9210     1.5400 h1         1 SDB       0.026700
     25 HG           4.7270    -0.7660     1.6310 ho         1 SDB       0.424000
@<TRIPOS>BOND
     1     1     2 1   
     2     2     3 1   
     3     2    13 1   
     4     3     4 1   
     5     3     7 1   
     6     3    14 1   
     7     4     5 1   
     8     4    15 1   
     9     4    16 1   
    10     5     6 1   
    11     5    18 1   
    12     5    19 1   
    13     6     8 2   
    14     7     8 1   
    15     7    17 1   
    16     8     9 1   
    17     9    10 1   
    18     9    11 1   
    19     9    20 1   
    20    10    21 1   
    21    10    22 1   
    22    11    12 1   
    23    11    23 1   
    24    11    24 1   
    25    12    25 1   
@<TRIPOS>SUBSTRUCTURE
     1 SDB         1 TEMP              0 ****  ****    0 ROOT
