@<TRIPOS>MOLECULE
SDC
   24    23     1     0     0
SMALL
abcg2


@<TRIPOS>ATOM
      1 O01          3.8370    50.3040    -4.6520 o          1 SDC      -0.723000
      2 NP2          5.6290    50.2720    -1.6210 n8         1 SDC      -1.005200
      3 C03          4.9560    49.5070    -2.6790 c3         1 SDC       0.025500
      4 C04          4.8870    50.3670    -3.9670 c          1 SDC       0.718000
      5 O05          5.9130    51.0420    -4.2350 o          1 SDC      -0.723000
      6 C06          3.5880    49.0610    -2.1750 c3         1 SDC       0.113600
      7 S07          2.7790    47.8290    -3.2590 ss         1 SDC      -0.374000
      8 C08          2.5510    46.4730    -2.0510 c3         1 SDC       0.047600
      9 C09          1.8160    45.3330    -2.7310 c3         1 SDC      -0.320400
     10 S10          1.5620    43.9230    -1.6540 s6         1 SDC       1.193100
     11 O11          0.8450    42.9290    -2.4190 o          1 SDC      -0.547000
     12 N12          3.0240    43.2770    -1.2940 n8         1 SDC      -1.014100
     13 O13          1.0030    44.3920    -0.4060 o          1 SDC      -0.547000
     14 H03          5.5240    48.6050    -2.9550 h1         1 SDC       0.007700
     15 H061         3.6960    48.5910    -1.1970 h1         1 SDC       0.050700
     16 H062         2.9280    49.9210    -2.0680 h1         1 SDC       0.050700
     17 H081         3.5310    46.1500    -1.6990 h1         1 SDC       0.052200
     18 H082         1.9740    46.8400    -1.2040 h1         1 SDC       0.052200
     19 H091         0.8110    45.6260    -3.0420 h1         1 SDC       0.108200
     20 H092         2.3530    44.9490    -3.6000 h1         1 SDC       0.108200
     21 H121         3.5290    42.9400    -2.1070 hn         1 SDC       0.478000
     22 H122         3.5950    43.8700    -0.7010 hn         1 SDC       0.478000
     23 HP21         6.0300    49.6430    -0.9340 hn         1 SDC       0.386500
     24 HP22         6.3960    50.7760    -2.0560 hn         1 SDC       0.386500
@<TRIPOS>BOND
     1     1     4 1   
     2     2     3 1   
     3     2    23 1   
     4     2    24 1   
     5     3     4 1   
     6     3     6 1   
     7     3    14 1   
     8     4     5 1   
     9     6     7 1   
    10     6    15 1   
    11     6    16 1   
    12     7     8 1   
    13     8     9 1   
    14     8    17 1   
    15     8    18 1   
    16     9    10 1   
    17     9    19 1   
    18     9    20 1   
    19    10    11 2   
    20    10    12 1   
    21    10    13 2   
    22    12    21 1   
    23    12    22 1   
@<TRIPOS>SUBSTRUCTURE
     1 SDC         1 TEMP              0 ****  ****    0 ROOT
