@<TRIPOS>MOLECULE
SDC
   24    23     1     0     0
SMALL
No Charge or Current Charge


@<TRIPOS>ATOM
      1 O01          3.0770    51.0640    -3.5310 o          1 SDC      -0.723000
      2 NP2          5.8280    50.7230    -1.8810 n8         1 SDC      -1.005200
      3 C03          5.0720    49.8490    -2.8600 c3         1 SDC       0.025500
      4 C04          4.1500    50.6040    -3.9060 c          1 SDC       0.718000
      5 O05          4.5900    50.7840    -5.0350 o          1 SDC      -0.723000
      6 C06          4.2730    48.7430    -2.1210 c3         1 SDC       0.113600
      7 S07          3.6920    47.4270    -3.2890 ss         1 SDC      -0.374000
      8 C08          2.8270    46.3140    -2.1020 c3         1 SDC       0.047600
      9 C09          2.2530    45.1040    -2.8640 c3         1 SDC      -0.320400
     10 S10          1.3500    43.9660    -1.8150 s6         1 SDC       1.193100
     11 O11          0.9390    42.7860    -2.5700 o          1 SDC      -0.547000
     12 N12          2.5250    43.4440    -0.8110 n8         1 SDC      -1.014100
     13 O13          0.4010    44.6810    -0.9660 o          1 SDC      -0.547000
     14 H03          5.8480    49.3370    -3.4460 h1         1 SDC       0.007700
     15 H061         4.9140    48.2680    -1.3670 h1         1 SDC       0.050700
     16 H062         3.4080    49.1810    -1.6070 h1         1 SDC       0.050700
     17 H081         3.5420    45.9820    -1.3380 h1         1 SDC       0.052200
     18 H082         2.0200    46.8740    -1.6100 h1         1 SDC       0.052200
     19 H091         1.5420    45.4340    -3.6280 h1         1 SDC       0.108200
     20 H092         3.0520    44.5230    -3.3340 h1         1 SDC       0.108200
     21 H121         2.0700    43.5610     0.0920 hn         1 SDC       0.478000
     22 H122         2.4590    42.4380    -0.9500 hn         1 SDC       0.478000
     23 HP21         6.5050    50.1520    -1.3610 hn         1 SDC       0.386500
     24 HP22         6.4200    51.3810    -2.4050 hn         1 SDC       0.386500
@<TRIPOS>BOND
     1     1     4 1   
     2     2     3 1   
     3     2    23 1   
     4     2    24 1   
     5     3     4 1   
     6     3     6 1   
     7     3    14 1   
     8     4     5 1   
     9     6     7 1   
    10     6    15 1   
    11     6    16 1   
    12     7     8 1   
    13     8     9 1   
    14     8    17 1   
    15     8    18 1   
    16     9    10 1   
    17     9    19 1   
    18     9    20 1   
    19    10    11 2   
    20    10    12 1   
    21    10    13 2   
    22    12    21 1   
    23    12    22 1   
@<TRIPOS>SUBSTRUCTURE
     1 SDC         1 TEMP              0 ****  ****    0 ROOT
