@<TRIPOS>MOLECULE
SDD
   24    23     1     0     0
SMALL
bcc


@<TRIPOS>ATOM
      1 C1          -2.5040     1.0690    -0.4600 c3         1 SDD       0.041400
      2 O1          -3.8950     1.1500    -0.3990 oh         1 SDD      -0.565800
      3 C2          -2.0700    -0.3380    -0.1560 c          1 SDD       0.539100
      4 O2          -2.8180    -1.1580     0.3210 o          1 SDD      -0.486100
      5 C3          -0.6420    -0.7270    -0.5110 c3         1 SDD       0.025100
      6 O3          -0.3890    -2.0380    -0.1100 oh         1 SDD      -0.571800
      7 C4           0.3520     0.2550     0.1190 c3         1 SDD       0.146100
      8 O4           0.1950     0.3010     1.5130 oh         1 SDD      -0.598800
      9 C5           1.8040    -0.0030    -0.2940 c3         1 SDD       0.124100
     10 O5           2.2880    -1.1370     0.3830 oh         1 SDD      -0.585800
     11 C6           2.6570     1.2190     0.0160 c3         1 SDD       0.093400
     12 O6           3.9880     0.9090    -0.3370 oh         1 SDD      -0.608800
     13 H1          -2.0980     1.3530    -1.4410 h1         1 SDD       0.042200
     14 H2          -2.0140     1.7260     0.2740 h1         1 SDD       0.042200
     15 H3          -4.1430     2.0670    -0.5480 ho         1 SDD       0.409000
     16 H4          -0.5620    -0.6240    -1.6070 h1         1 SDD       0.062700
     17 H5          -1.2310    -2.4180     0.1780 ho         1 SDD       0.429000
     18 H6           0.1040     1.2510    -0.2640 h1         1 SDD       0.062700
     19 H7           0.5250    -0.5320     1.8700 ho         1 SDD       0.437000
     20 H8           1.8190    -0.1560    -1.3850 h1         1 SDD       0.050700
     21 H9           3.2510    -1.0870     0.3710 ho         1 SDD       0.424000
     22 H10          2.2760     2.0760    -0.5530 h1         1 SDD       0.036700
     23 H11          2.5720     1.4650     1.0810 h1         1 SDD       0.036700
     24 H12          4.5770     1.5240     0.1090 ho         1 SDD       0.415000
@<TRIPOS>BOND
     1     1     2 1   
     2     1     3 1   
     3     1    13 1   
     4     1    14 1   
     5     2    15 1   
     6     3     4 2   
     7     3     5 1   
     8     5     6 1   
     9     5     7 1   
    10     5    16 1   
    11     6    17 1   
    12     7     8 1   
    13     7     9 1   
    14     7    18 1   
    15     8    19 1   
    16     9    10 1   
    17     9    11 1   
    18     9    20 1   
    19    10    21 1   
    20    11    12 1   
    21    11    22 1   
    22    11    23 1   
    23    12    24 1   
@<TRIPOS>SUBSTRUCTURE
     1 SDD         1 TEMP              0 ****  ****    0 ROOT
