@<TRIPOS>MOLECULE
SDD
   24    23     1     0     0
SMALL
No Charge or Current Charge


@<TRIPOS>ATOM
      1 C1          -2.6470     1.1550    -0.5060 c3         1 SDD       0.064600
      2 O1          -4.0710     1.2880    -0.7430 oh         1 SDD      -0.628000
      3 C2          -2.2060    -0.2880    -0.1130 c          1 SDD       0.539100
      4 O2          -2.9680    -1.0760     0.4480 o          1 SDD      -0.486100
      5 C3          -0.7590    -0.6980    -0.5390 c3         1 SDD       0.048300
      6 O3          -0.5170    -2.1300    -0.4090 oh         1 SDD      -0.694000
      7 C4           0.3030     0.1400     0.2460 c3         1 SDD       0.169300
      8 O4           0.2690    -0.2040     1.6370 oh         1 SDD      -0.721000
      9 C5           1.7760    -0.0450    -0.2370 c3         1 SDD       0.147300
     10 O5           2.3810    -1.1690     0.4340 oh         1 SDD      -0.708000
     11 C6           2.6770     1.1840     0.0520 c3         1 SDD       0.116600
     12 O6           4.0520     0.8440    -0.2240 oh         1 SDD      -0.731000
     13 H1          -2.0890     1.4410    -1.4080 h1         1 SDD       0.042200
     14 H2          -2.3260     1.8260     0.3020 h1         1 SDD       0.042200
     15 H3          -4.2510     2.2310    -0.9620 ho         1 SDD       0.448000
     16 H4          -0.6720    -0.4150    -1.5970 h1         1 SDD       0.062700
     17 H5          -0.6600    -2.3590     0.5400 ho         1 SDD       0.528000
     18 H6           0.0470     1.2020     0.1170 h1         1 SDD       0.062700
     19 H7           1.0820    -0.7700     1.7190 ho         1 SDD       0.536000
     20 H8           1.7720    -0.2070    -1.3250 h1         1 SDD       0.050700
     21 H9           3.3510    -0.9850     0.3340 ho         1 SDD       0.523000
     22 H10          2.3510     2.0240    -0.5780 h1         1 SDD       0.036700
     23 H11          2.5600     1.4880     1.1020 h1         1 SDD       0.036700
     24 H12          4.5850     1.6700    -0.1190 ho         1 SDD       0.514000
@<TRIPOS>BOND
     1     1     2 1   
     2     1     3 1   
     3     1    13 1   
     4     1    14 1   
     5     2    15 1   
     6     3     4 2   
     7     3     5 1   
     8     5     6 1   
     9     5     7 1   
    10     5    16 1   
    11     6    17 1   
    12     7     8 1   
    13     7     9 1   
    14     7    18 1   
    15     8    19 1   
    16     9    10 1   
    17     9    11 1   
    18     9    20 1   
    19    10    21 1   
    20    11    12 1   
    21    11    22 1   
    22    11    23 1   
    23    12    24 1   
@<TRIPOS>SUBSTRUCTURE
     1 SDD         1 TEMP              0 ****  ****    0 ROOT
