@<TRIPOS>MOLECULE
SDF
   19    19     1     0     0
SMALL
abcg2


@<TRIPOS>ATOM
      1 C1           0.1310     0.0170     0.4850 ca         1 SDF       0.080700
      2 P1          -2.3280     0.3290    -0.7980 p5         1 SDF       1.258500
      3 S1          -1.9110     0.7450     2.2090 sh         1 SDF      -0.604800
      4 CL1          0.3410    -2.6360    -0.1050 cl         1 SDF      -0.231000
      5 C2           0.9590    -1.0200     0.0560 ca         1 SDF       0.135000
      6 CL2          4.5220     0.6750    -0.4850 cl         1 SDF      -0.297000
      7 C3           2.3040    -0.8380    -0.2380 ca         1 SDF      -0.113000
      8 C4           2.8430     0.4300    -0.1250 ca         1 SDF       0.074000
      9 C5           2.0600     1.4980     0.2810 ca         1 SDF      -0.116000
     10 C6           0.7260     1.2770     0.5730 ca         1 SDF      -0.088000
     11 C7          -1.3240    -0.1650     0.7490 c3         1 SDF      -0.106400
     12 O13         -1.5950    -0.3770    -1.9330 o          1 SDF      -0.899167
     13 H3           2.9150    -1.6730    -0.5510 ha         1 SDF       0.104000
     14 H5           2.4810     2.4910     0.3660 ha         1 SDF       0.096000
     15 H6           0.1210     2.1120     0.8990 ha         1 SDF       0.140000
     16 H61         -2.2680     1.8540     1.5470 hs         1 SDF       0.281800
     17 H7          -1.5390    -1.2130     0.9550 h1         1 SDF       0.084700
     18 O11         -3.7320    -0.1970    -0.5150 o          1 SDF      -0.899167
     19 O12         -2.2150     1.8570    -0.8190 o          1 SDF      -0.899167
@<TRIPOS>BOND
     1     1     5 ar  
     2     1    10 ar  
     3     1    11 1   
     4     2    11 1   
     5     2    12 1   
     6     2    18 1   
     7     2    19 1   
     8     3    11 1   
     9     3    16 1   
    10     4     5 1   
    11     5     7 ar  
    12     6     8 1   
    13     7     8 ar  
    14     7    13 1   
    15     8     9 ar  
    16     9    10 ar  
    17     9    14 1   
    18    10    15 1   
    19    11    17 1   
@<TRIPOS>SUBSTRUCTURE
     1 SDF         1 TEMP              0 ****  ****    0 ROOT
