@<TRIPOS>MOLECULE
SDF
   19    19     1     0     0
SMALL
No Charge or Current Charge


@<TRIPOS>ATOM
      1 C1           0.1330     0.0140     0.4080 ca         1 SDF       0.080700
      2 P1          -2.3940     0.3830    -0.7990 p5         1 SDF       1.258500
      3 S1          -1.7840     0.5540     2.3750 sh         1 SDF      -0.604800
      4 Cl1          0.3980    -2.7490     0.0810 cl         1 SDF      -0.231000
      5 C2           0.9890    -1.0840     0.1330 ca         1 SDF       0.135000
      6 Cl2          4.6030     0.6790    -0.3810 cl         1 SDF      -0.297000
      7 C3           2.3590    -0.8730    -0.1070 ca         1 SDF      -0.113000
      8 C4           2.8900     0.4240    -0.0800 ca         1 SDF       0.074000
      9 C5           2.0550     1.5190     0.1860 ca         1 SDF      -0.116000
     10 C6           0.6850     1.3140     0.4270 ca         1 SDF      -0.088000
     11 C7          -1.3640    -0.1650     0.6750 c3         1 SDF      -0.106400
     12 O13         -1.7370    -0.0720    -2.0590 o          1 SDF      -0.899167
     13 H3           3.0080    -1.7190    -0.3140 ha         1 SDF       0.104000
     14 H5           2.4660     2.5250     0.2040 ha         1 SDF       0.096000
     15 H6           0.0480     2.1720     0.6270 ha         1 SDF       0.140000
     16 H61         -1.9970     1.8270     1.9350 hs         1 SDF       0.281800
     17 H7          -1.6080    -1.2300     0.7240 h1         1 SDF       0.084700
     18 O11         -3.7550    -0.2230    -0.6960 o          1 SDF      -0.899167
     19 O12         -2.5040     1.8720    -0.7890 o          1 SDF      -0.899167
@<TRIPOS>BOND
     1     1     5 ar  
     2     1    10 ar  
     3     1    11 1   
     4     2    11 1   
     5     2    12 1   
     6     2    18 1   
     7     2    19 1   
     8     3    11 1   
     9     3    16 1   
    10     4     5 1   
    11     5     7 ar  
    12     6     8 1   
    13     7     8 ar  
    14     7    13 1   
    15     8     9 ar  
    16     9    10 ar  
    17     9    14 1   
    18    10    15 1   
    19    11    17 1   
@<TRIPOS>SUBSTRUCTURE
     1 SDF         1 TEMP              0 ****  ****    0 ROOT
