@<TRIPOS>MOLECULE
SDJ
   67    70     1     0     0
SMALL
bcc


@<TRIPOS>ATOM
      1 O           -0.5850    -0.4640     2.2240 o          1 SDJ      -0.600100
      2 C           -0.2560    -0.7720     1.0860 c          1 SDJ       0.677100
      3 N1           1.0400    -0.9280     0.7220 n          1 SDJ      -0.484800
      4 C1          -1.3090    -0.9580     0.0100 c3         1 SDJ      -0.180400
      5 N           -3.5970    -0.5550    -0.6470 nu         1 SDJ      -0.769600
      6 C20          3.4530     3.6810     1.3010 c          1 SDJ       0.568900
      7 C19          2.5070     2.8670     0.4600 c3         1 SDJ       0.058500
      8 C21          1.3730     3.8000    -0.0080 c3         1 SDJ       0.004900
      9 C22          0.4000     3.0900    -0.8880 cc         1 SDJ      -0.232900
     10 N4          -0.9300     2.9660    -0.5900 na         1 SDJ      -0.293900
     11 C24         -1.5140     2.2440    -1.5680 cc         1 SDJ       0.396400
     12 N3          -0.6440     1.8850    -2.4780 nd         1 SDJ      -0.683000
     13 C23          0.5500     2.4060    -2.0650 cd         1 SDJ       0.292200
     14 N2           1.9680     1.7280     1.1540 n7         1 SDJ      -0.782200
     15 C17          2.1150    -0.6590     1.6790 c6         1 SDJ       0.100700
     16 C16          3.0300    -1.8770     1.8120 c6         1 SDJ      -0.083400
     17 C15          3.5080    -2.4260     0.4730 c6         1 SDJ      -0.058700
     18 C14          4.3460    -3.6900     0.6350 c6         1 SDJ      -0.070400
     19 C13          4.7930    -4.2350    -0.7180 c6         1 SDJ      -0.074400
     20 C12          3.5990    -4.4760    -1.6370 c6         1 SDJ      -0.073400
     21 C11          2.7510    -3.2170    -1.7930 c6         1 SDJ      -0.069400
     22 C10          2.3070    -2.6840    -0.4350 c6         1 SDJ      -0.081700
     23 C9           1.4730    -1.4170    -0.5780 c6         1 SDJ       0.103000
     24 C2          -2.6750    -0.4710     0.4610 c3         1 SDJ       0.221800
     25 C3          -4.9280    -0.2440    -0.5010 ca         1 SDJ       0.167600
     26 C8          -5.8420    -0.6260    -1.4980 ca         1 SDJ      -0.203000
     27 C7          -7.1810    -0.3010    -1.3950 ca         1 SDJ      -0.087000
     28 C6          -7.6600     0.4170    -0.3020 ca         1 SDJ      -0.177000
     29 C5          -6.7640     0.7950     0.6860 ca         1 SDJ      -0.087000
     30 C4          -5.4160     0.4720     0.6000 ca         1 SDJ      -0.203000
     31 H1          -1.0250    -0.4180    -0.8960 hc         1 SDJ       0.071700
     32 H2          -1.3640    -2.0160    -0.2700 hc         1 SDJ       0.071700
     33 H3          -3.4160    -1.3020    -1.2990 hn         1 SDJ       0.410800
     34 H4           3.8990     4.5350     0.7580 h4         1 SDJ      -0.018800
     35 H5           3.0930     2.5860    -0.4370 h1         1 SDJ       0.037700
     36 H6           0.8550     4.1980     0.8670 hc         1 SDJ       0.062200
     37 H7           1.8040     4.6550    -0.5340 hc         1 SDJ       0.062200
     38 H8          -1.3960     3.3600     0.2130 hn         1 SDJ       0.307700
     39 H9          -2.5650     2.0000    -1.5610 h5         1 SDJ       0.072100
     40 H11          1.4600     2.2610    -2.6280 h4         1 SDJ       0.034100
     41 H12          1.1740     1.4050     0.6140 hn         1 SDJ       0.366800
     42 H16          1.6460    -0.4720     2.6430 h1         1 SDJ       0.102700
     43 H17          3.8810    -1.6100     2.4450 hc         1 SDJ       0.053200
     44 H18          2.4810    -2.6630     2.3420 hc         1 SDJ       0.053200
     45 H19          4.1380    -1.6740    -0.0220 hc         1 SDJ       0.046700
     46 H20          5.2110    -3.4830     1.2700 hc         1 SDJ       0.042200
     47 H21          3.7490    -4.4490     1.1550 hc         1 SDJ       0.042200
     48 H22          5.4740    -3.5190    -1.1900 hc         1 SDJ       0.040200
     49 H23          5.3580    -5.1600    -0.5850 hc         1 SDJ       0.040200
     50 H24          3.9370    -4.8240    -2.6150 hc         1 SDJ       0.040700
     51 H25          2.9800    -5.2760    -1.2180 hc         1 SDJ       0.040700
     52 H26          3.3330    -2.4470    -2.3120 hc         1 SDJ       0.040700
     53 H27          1.8790    -3.4260    -2.4200 hc         1 SDJ       0.040700
     54 H28          1.6740    -3.4430     0.0460 hc         1 SDJ       0.055700
     55 H29          0.6160    -1.6160    -1.2140 h1         1 SDJ       0.049700
     56 H30          2.0630    -0.6460    -1.0860 h1         1 SDJ       0.049700
     57 H31         -3.0230    -1.0480     1.3270 h1         1 SDJ       0.051200
     58 H32         -2.5950     0.5690     0.7870 h1         1 SDJ       0.051200
     59 H33         -5.4870    -1.1840    -2.3570 ha         1 SDJ       0.129500
     60 H34         -7.8610    -0.6140    -2.1780 ha         1 SDJ       0.126500
     61 H35         -8.7090     0.6690    -0.2250 ha         1 SDJ       0.131000
     62 H36         -7.1140     1.3490     1.5490 ha         1 SDJ       0.126500
     63 H37         -4.7520     0.7810     1.3960 ha         1 SDJ       0.129500
     64 C18          2.8820     0.6100     1.2950 c3         1 SDJ       0.147800
     65 O1           3.7300     3.4610     2.4520 o          1 SDJ      -0.486100
     66 H14          3.4770     0.4550     0.3820 h1         1 SDJ       0.040200
     67 H15          3.5990     0.8060     2.0940 h1         1 SDJ       0.040200
@<TRIPOS>BOND
     1     1     2 2   
     2     2     3 1   
     3     2     4 1   
     4     3    15 1   
     5     3    23 1   
     6     4    24 1   
     7     4    31 1   
     8     4    32 1   
     9     5    24 1   
    10     5    25 1   
    11     5    33 1   
    12     6     7 1   
    13     6    34 1   
    14     6    65 2   
    15     7     8 1   
    16     7    14 1   
    17     7    35 1   
    18     8     9 1   
    19     8    36 1   
    20     8    37 1   
    21     9    10 1   
    22     9    13 2   
    23    10    11 1   
    24    10    38 1   
    25    11    12 2   
    26    11    39 1   
    27    12    13 1   
    28    13    40 1   
    29    14    41 1   
    30    14    64 1   
    31    15    16 1   
    32    15    42 1   
    33    15    64 1   
    34    16    17 1   
    35    16    43 1   
    36    16    44 1   
    37    17    18 1   
    38    17    22 1   
    39    17    45 1   
    40    18    19 1   
    41    18    46 1   
    42    18    47 1   
    43    19    20 1   
    44    19    48 1   
    45    19    49 1   
    46    20    21 1   
    47    20    50 1   
    48    20    51 1   
    49    21    22 1   
    50    21    52 1   
    51    21    53 1   
    52    22    23 1   
    53    22    54 1   
    54    23    55 1   
    55    23    56 1   
    56    24    57 1   
    57    24    58 1   
    58    25    26 ar  
    59    25    30 ar  
    60    26    27 ar  
    61    26    59 1   
    62    27    28 ar  
    63    27    60 1   
    64    28    29 ar  
    65    28    61 1   
    66    29    30 ar  
    67    29    62 1   
    68    30    63 1   
    69    64    66 1   
    70    64    67 1   
@<TRIPOS>SUBSTRUCTURE
     1 SDJ         1 TEMP              0 ****  ****    0 ROOT
