@<TRIPOS>MOLECULE
SDJ
   67    70     1     0     0
SMALL
No Charge or Current Charge


@<TRIPOS>ATOM
      1 O           -0.5490    -0.4160     2.3230 o          1 SDJ      -0.600100
      2 C           -0.2980    -0.8250     1.1970 c          1 SDJ       0.610100
      3 N1           1.0360    -1.1180     0.8170 n          1 SDJ      -0.417800
      4 C1          -1.4290    -1.0250     0.1780 c3         1 SDJ      -0.180400
      5 N           -3.7610    -0.5940    -0.4620 nu         1 SDJ      -0.963200
      6 C20          3.5040     3.7820     1.2820 c          1 SDJ       0.568900
      7 C19          2.4590     2.9390     0.4770 c3         1 SDJ       0.058500
      8 C21          1.2450     3.8100     0.0710 c3         1 SDJ       0.004900
      9 C22          0.2480     3.0720    -0.7950 cc         1 SDJ      -0.218300
     10 N4          -1.0870     2.8920    -0.4980 na         1 SDJ      -0.293500
     11 C24         -1.6610     2.1880    -1.5290 cc         1 SDJ       0.396400
     12 N3          -0.7550     1.9080    -2.4560 nd         1 SDJ      -0.683000
     13 C23          0.4320     2.4530    -2.0070 cd         1 SDJ       0.226900
     14 N2           1.9530     1.7040     1.1540 n7         1 SDJ      -0.837400
     15 C17          2.1970    -0.7510     1.6960 c6         1 SDJ       0.100700
     16 C16          3.2060    -1.9270     1.8170 c6         1 SDJ      -0.083400
     17 C15          3.6600    -2.4570     0.4340 c6         1 SDJ      -0.058700
     18 C14          4.6350    -3.6570     0.5730 c6         1 SDJ      -0.070400
     19 C13          5.0570    -4.1960    -0.8170 c6         1 SDJ      -0.074400
     20 C12          3.8210    -4.5770    -1.6700 c6         1 SDJ      -0.073400
     21 C11          2.8360    -3.3880    -1.7960 c6         1 SDJ      -0.069400
     22 C10          2.4120    -2.8600    -0.3990 c6         1 SDJ      -0.081700
     23 C9           1.4180    -1.6760    -0.5180 c6         1 SDJ       0.103000
     24 C2          -2.7820    -0.4590     0.6250 c3         1 SDJ       0.221800
     25 C3          -5.0840    -0.1520    -0.4670 ca         1 SDJ       0.306000
     26 C8          -5.9200    -0.5250    -1.5310 ca         1 SDJ      -0.185000
     27 C7          -7.2570    -0.0930    -1.5720 ca         1 SDJ      -0.069000
     28 C6          -7.7620     0.7180    -0.5410 ca         1 SDJ      -0.159000
     29 C5          -6.9300     1.0960     0.5260 ca         1 SDJ      -0.069000
     30 C4          -5.5930     0.6620     0.5620 ca         1 SDJ      -0.185000
     31 H1          -1.1080    -0.5960    -0.7770 hc         1 SDJ       0.071700
     32 H2          -1.4910    -2.0940    -0.0510 hc         1 SDJ       0.071700
     33 H3          -3.4970    -1.1900    -1.2470 hn         1 SDJ       0.466000
     34 H4           3.9300     4.6460     0.7250 h4         1 SDJ      -0.018800
     35 H5           2.9630     2.6560    -0.4570 h1         1 SDJ       0.037700
     36 H6           0.7520     4.1850     0.9780 hc         1 SDJ       0.062200
     37 H7           1.6040     4.6950    -0.4710 hc         1 SDJ       0.062200
     38 H8          -1.5810     3.2260     0.3210 hn         1 SDJ       0.358000
     39 H9          -2.7120     1.9190    -1.5440 h5         1 SDJ       0.072100
     40 H11          1.3480     2.3720    -2.5790 h4         1 SDJ       0.034100
     41 H12          1.1390     1.3820     0.6160 hn         1 SDJ       0.422000
     42 H16          1.8330    -0.5490     2.7130 h1         1 SDJ       0.102700
     43 H17          4.0770    -1.6110     2.4070 hc         1 SDJ       0.053200
     44 H18          2.7330    -2.7410     2.3830 hc         1 SDJ       0.053200
     45 H19          4.1940    -1.6550    -0.0950 hc         1 SDJ       0.046700
     46 H20          5.5280    -3.3530     1.1350 hc         1 SDJ       0.042200
     47 H21          4.1610    -4.4630     1.1510 hc         1 SDJ       0.042200
     48 H22          5.6490    -3.4350    -1.3440 hc         1 SDJ       0.040200
     49 H23          5.7100    -5.0710    -0.6960 hc         1 SDJ       0.040200
     50 H24          4.1440    -4.9010    -2.6690 hc         1 SDJ       0.040700
     51 H25          3.3080    -5.4350    -1.2140 hc         1 SDJ       0.040700
     52 H26          3.3040    -2.5810    -2.3760 hc         1 SDJ       0.040700
     53 H27          1.9490    -3.7050    -2.3630 hc         1 SDJ       0.040700
     54 H28          1.8920    -3.6740     0.1280 hc         1 SDJ       0.055700
     55 H29          0.5400    -2.0350    -1.0680 h1         1 SDJ       0.049700
     56 H30          1.8690    -0.8750    -1.1210 h1         1 SDJ       0.049700
     57 H31         -3.1300    -0.9920     1.5210 h1         1 SDJ       0.051200
     58 H32         -2.6580     0.6020     0.8870 h1         1 SDJ       0.051200
     59 H33         -5.5350    -1.1510    -2.3320 ha         1 SDJ       0.111500
     60 H34         -7.9000    -0.3860    -2.3990 ha         1 SDJ       0.108500
     61 H35         -8.7960     1.0530    -0.5700 ha         1 SDJ       0.113000
     62 H36         -7.3210     1.7250     1.3240 ha         1 SDJ       0.108500
     63 H37         -4.9620     0.9630     1.3920 ha         1 SDJ       0.111500
     64 C18          2.8960     0.5670     1.2250 c3         1 SDJ       0.147800
     65 O1           3.8620     3.5500     2.4350 o          1 SDJ      -0.486100
     66 H14          3.3360     0.3920     0.2350 h1         1 SDJ       0.040200
     67 H15          3.7190     0.7950     1.9150 h1         1 SDJ       0.040200
@<TRIPOS>BOND
     1     1     2 2   
     2     2     3 1   
     3     2     4 1   
     4     3    15 1   
     5     3    23 1   
     6     4    24 1   
     7     4    31 1   
     8     4    32 1   
     9     5    24 1   
    10     5    25 1   
    11     5    33 1   
    12     6     7 1   
    13     6    34 1   
    14     6    65 2   
    15     7     8 1   
    16     7    14 1   
    17     7    35 1   
    18     8     9 1   
    19     8    36 1   
    20     8    37 1   
    21     9    10 1   
    22     9    13 2   
    23    10    11 1   
    24    10    38 1   
    25    11    12 2   
    26    11    39 1   
    27    12    13 1   
    28    13    40 1   
    29    14    41 1   
    30    14    64 1   
    31    15    16 1   
    32    15    42 1   
    33    15    64 1   
    34    16    17 1   
    35    16    43 1   
    36    16    44 1   
    37    17    18 1   
    38    17    22 1   
    39    17    45 1   
    40    18    19 1   
    41    18    46 1   
    42    18    47 1   
    43    19    20 1   
    44    19    48 1   
    45    19    49 1   
    46    20    21 1   
    47    20    50 1   
    48    20    51 1   
    49    21    22 1   
    50    21    52 1   
    51    21    53 1   
    52    22    23 1   
    53    22    54 1   
    54    23    55 1   
    55    23    56 1   
    56    24    57 1   
    57    24    58 1   
    58    25    26 ar  
    59    25    30 ar  
    60    26    27 ar  
    61    26    59 1   
    62    27    28 ar  
    63    27    60 1   
    64    28    29 ar  
    65    28    61 1   
    66    29    30 ar  
    67    29    62 1   
    68    30    63 1   
    69    64    66 1   
    70    64    67 1   
@<TRIPOS>SUBSTRUCTURE
     1 SDJ         1 TEMP              0 ****  ****    0 ROOT
