@<TRIPOS>MOLECULE
SDK
   84    85     1     0     0
SMALL
No Charge or Current Charge


@<TRIPOS>ATOM
      1 C1          -2.9600     0.5300    12.5030 ca         1 SDK      -0.098500
      2 C2          -1.9060    -0.3950    12.4050 ca         1 SDK      -0.116000
      3 C3          -0.9090    -0.2260    11.4280 ca         1 SDK      -0.084750
      4 C4          -0.9600     0.8700    10.5430 ca         1 SDK      -0.100800
      5 C5          -2.0200     1.7930    10.6450 ca         1 SDK      -0.084750
      6 C6          -3.0160     1.6230    11.6220 ca         1 SDK      -0.116000
      7 C7           0.1210     1.0530     9.4850 c3         1 SDK       0.231900
      8 O8          -0.2810     0.3470     8.3010 os         1 SDK      -0.452100
      9 C9           0.5600     0.3830     7.2340 c          1 SDK       0.640600
     10 O10          1.6250     0.9770     7.1830 o          1 SDK      -0.547500
     11 C11          0.6080    -0.5370     4.8760 c3         1 SDK       0.052700
     12 C12          1.3260    -1.9160     4.7910 c3         1 SDK      -0.085900
     13 C13          2.5780    -2.0920     5.6980 c3         1 SDK      -0.058700
     14 C14          3.0560    -3.5620     5.6960 c3         1 SDK      -0.091100
     15 C15          3.7380    -1.1460     5.3020 c3         1 SDK      -0.091100
     16 C16         -0.4860    -0.4070     3.7750 c          1 SDK       0.584600
     17 O17         -1.6880    -0.4200     4.0130 o          1 SDK      -0.594100
     18 N18         -0.0120    -0.2650     2.4870 ns         1 SDK      -0.498900
     19 C19         -0.8700    -0.1270     1.2870 c3         1 SDK       0.000500
     20 N20          0.0060    -0.3340     6.2120 ns         1 SDK      -0.477900
     21 C21         -0.0450    -0.0090    -0.0150 c          1 SDK       0.550100
     22 O22          1.1850    -0.0280    -0.0150 o          1 SDK      -0.527100
     23 C23         -2.9860    -0.4350   -12.5320 ca         1 SDK      -0.098500
     24 C24         -1.8990     0.4510   -12.4340 ca         1 SDK      -0.116000
     25 C25         -0.9090     0.2460   -11.4570 ca         1 SDK      -0.084750
     26 C26         -1.0000    -0.8480   -10.5720 ca         1 SDK      -0.100800
     27 C27         -2.0930    -1.7320   -10.6740 ca         1 SDK      -0.084750
     28 C28         -3.0820    -1.5250   -11.6520 ca         1 SDK      -0.116000
     29 C29          0.0730    -1.0710    -9.5150 c3         1 SDK       0.231900
     30 O30         -0.3020    -0.3500    -8.3300 os         1 SDK      -0.452100
     31 C31          0.5380    -0.4170    -7.2630 c          1 SDK       0.640600
     32 O32          1.5800    -1.0500    -7.2130 o          1 SDK      -0.547500
     33 C33          0.6200     0.5010    -4.9060 c3         1 SDK       0.052700
     34 C34          1.3840     1.8550    -4.8190 c3         1 SDK      -0.085900
     35 C35          2.6330     1.9970    -5.7340 c3         1 SDK      -0.058700
     36 C36          3.1560     3.4510    -5.7300 c3         1 SDK      -0.091100
     37 C37          3.7650     1.0130    -5.3520 c3         1 SDK      -0.091100
     38 C38         -0.4760     0.4050    -3.8040 c          1 SDK       0.584600
     39 O39         -1.6770     0.4570    -4.0400 o          1 SDK      -0.594100
     40 N40         -0.0060     0.2470    -2.5160 ns         1 SDK      -0.498900
     41 C41         -0.8670     0.1350    -1.3150 c3         1 SDK       0.000500
     42 N42          0.0100     0.3200    -6.2420 ns         1 SDK      -0.477900
     43 H1          -3.7310     0.3990    13.2590 ha         1 SDK       0.113000
     44 H2          -1.8620    -1.2430    13.0850 ha         1 SDK       0.114250
     45 H3          -0.0990    -0.9480    11.3570 ha         1 SDK       0.115500
     46 H5          -2.0730     2.6410     9.9650 ha         1 SDK       0.115500
     47 H6          -3.8320     2.3390    11.6960 ha         1 SDK       0.114250
     48 H71          1.0750     0.6650     9.8650 h1         1 SDK       0.056950
     49 H72          0.2520     2.1230     9.2750 h1         1 SDK       0.056950
     50 H11          1.3310     0.2660     4.6840 h1         1 SDK       0.081700
     51 H121         1.6290    -2.1020     3.7530 hc         1 SDK       0.056200
     52 H122         0.5940    -2.6960     5.0360 hc         1 SDK       0.056200
     53 H13          2.2910    -1.8550     6.7290 hc         1 SDK       0.051200
     54 H141         3.9100    -3.6940     6.3710 hc         1 SDK       0.036117
     55 H142         2.2550    -4.2320     6.0350 hc         1 SDK       0.036117
     56 H143         3.3610    -3.8740     4.6900 hc         1 SDK       0.036117
     57 H151         4.0540    -1.3270     4.2680 hc         1 SDK       0.036117
     58 H152         3.4460    -0.0940     5.3920 hc         1 SDK       0.036117
     59 H153         4.6040    -1.3050     5.9560 hc         1 SDK       0.036117
     60 HN8          0.9970    -0.2580     2.3620 hn         1 SDK       0.335500
     61 H191        -1.5270    -1.0030     1.1990 h1         1 SDK       0.079450
     62 H192        -1.4960     0.7700     1.3800 h1         1 SDK       0.079450
     63 HN2         -0.9080    -0.7280     6.3990 hn         1 SDK       0.335000
     64 H24         -1.8240     1.2970   -13.1140 ha         1 SDK       0.114250
     65 H25         -0.0730     0.9380   -11.3850 ha         1 SDK       0.115500
     66 H27         -2.1770    -2.5770    -9.9950 ha         1 SDK       0.115500
     67 H28         -3.9240    -2.2110   -11.7260 ha         1 SDK       0.114250
     68 H291         1.0420    -0.7180    -9.8950 h1         1 SDK       0.056950
     69 H292         0.1650    -2.1450    -9.3040 h1         1 SDK       0.056950
     70 H33          1.3170    -0.3250    -4.7150 h1         1 SDK       0.081700
     71 H341         0.6750     2.6600    -5.0540 hc         1 SDK       0.056200
     72 H342         1.6990     2.0260    -3.7820 hc         1 SDK       0.056200
     73 H35          2.3310     1.7730    -6.7650 hc         1 SDK       0.051200
     74 H361         4.0100     3.5590    -6.4110 hc         1 SDK       0.036117
     75 H362         2.3750     4.1470    -6.0600 hc         1 SDK       0.036117
     76 H363         3.4790     3.7480    -4.7250 hc         1 SDK       0.036117
     77 H371         4.0960     1.1810    -4.3200 hc         1 SDK       0.036117
     78 H372         3.4390    -0.0290    -5.4420 hc         1 SDK       0.036117
     79 H373         4.6300     1.1460    -6.0130 hc         1 SDK       0.036117
     80 HN4          1.0020     0.2070    -2.3920 hn         1 SDK       0.335500
     81 H411        -1.5210    -0.7420    -1.4080 h1         1 SDK       0.079450
     82 H412        -1.4960     1.0310    -1.2270 h1         1 SDK       0.079450
     83 HN          -0.8890     0.7470    -6.4280 hn         1 SDK       0.335000
     84 H23         -3.7520    -0.2750   -13.2880 ha         1 SDK       0.113000
@<TRIPOS>BOND
     1     1     2 ar  
     2     1     6 ar  
     3     1    43 1   
     4     2     3 ar  
     5     2    44 1   
     6     3     4 ar  
     7     3    45 1   
     8     4     5 ar  
     9     4     7 1   
    10     5     6 ar  
    11     5    46 1   
    12     6    47 1   
    13     7     8 1   
    14     7    48 1   
    15     7    49 1   
    16     8     9 1   
    17     9    10 2   
    18     9    20 1   
    19    11    12 1   
    20    11    16 1   
    21    11    20 1   
    22    11    50 1   
    23    12    13 1   
    24    12    51 1   
    25    12    52 1   
    26    13    14 1   
    27    13    15 1   
    28    13    53 1   
    29    14    54 1   
    30    14    55 1   
    31    14    56 1   
    32    15    57 1   
    33    15    58 1   
    34    15    59 1   
    35    16    17 2   
    36    16    18 1   
    37    18    19 1   
    38    18    60 1   
    39    19    21 1   
    40    19    61 1   
    41    19    62 1   
    42    20    63 1   
    43    21    22 2   
    44    21    41 1   
    45    23    24 ar  
    46    23    28 ar  
    47    23    84 1   
    48    24    25 ar  
    49    24    64 1   
    50    25    26 ar  
    51    25    65 1   
    52    26    27 ar  
    53    26    29 1   
    54    27    28 ar  
    55    27    66 1   
    56    28    67 1   
    57    29    30 1   
    58    29    68 1   
    59    29    69 1   
    60    30    31 1   
    61    31    32 2   
    62    31    42 1   
    63    33    34 1   
    64    33    38 1   
    65    33    42 1   
    66    33    70 1   
    67    34    35 1   
    68    34    71 1   
    69    34    72 1   
    70    35    36 1   
    71    35    37 1   
    72    35    73 1   
    73    36    74 1   
    74    36    75 1   
    75    36    76 1   
    76    37    77 1   
    77    37    78 1   
    78    37    79 1   
    79    38    39 2   
    80    38    40 1   
    81    40    41 1   
    82    40    80 1   
    83    41    81 1   
    84    41    82 1   
    85    42    83 1   
@<TRIPOS>SUBSTRUCTURE
     1 SDK         1 TEMP              0 ****  ****    0 ROOT
