@<TRIPOS>MOLECULE
SDK
   84    85     1     0     0
SMALL
bcc


@<TRIPOS>ATOM
      1 C1          -2.7560     0.4420    11.9690 ca         1 SDK      -0.116500
      2 C2          -1.3810     0.5170    11.7770 ca         1 SDK      -0.134000
      3 C3          -0.8710     0.8650    10.5350 ca         1 SDK      -0.102750
      4 C4          -1.7270     1.1370     9.4700 ca         1 SDK      -0.100800
      5 C5          -3.1010     1.0560     9.6690 ca         1 SDK      -0.102750
      6 C6          -3.6160     0.7130    10.9140 ca         1 SDK      -0.134000
      7 C7          -1.1710     1.5050     8.1280 c3         1 SDK       0.208700
      8 O8          -0.6140     0.3130     7.5610 os         1 SDK      -0.428900
      9 C9          -0.0190     0.4300     6.3720 c          1 SDK       0.756600
     10 O10          0.0600     1.4670     5.7450 o          1 SDK      -0.596500
     11 C11          1.0440    -0.8800     4.6440 c3         1 SDK       0.052700
     12 C12          1.7000    -2.2530     4.4800 c3         1 SDK      -0.085900
     13 C13          2.8440    -2.5420     5.4570 c3         1 SDK      -0.058700
     14 C14          3.4100    -3.9290     5.1690 c3         1 SDK      -0.091100
     15 C15          3.9410    -1.4860     5.3910 c3         1 SDK      -0.091100
     16 C16         -0.0490    -0.7110     3.5860 c          1 SDK       0.651600
     17 O17         -1.2200    -0.9700     3.8090 o          1 SDK      -0.594100
     18 N18          0.4010    -0.3000     2.3920 ns         1 SDK      -0.565900
     19 C19         -0.4520    -0.1660     1.2470 c3         1 SDK       0.000500
     20 N20          0.5010    -0.7450     5.9660 ns         1 SDK      -0.544900
     21 C21          0.3570    -0.0470    -0.0190 c          1 SDK       0.550100
     22 O22          1.5640    -0.0640    -0.0220 o          1 SDK      -0.527100
     23 C23         -2.7620    -0.3200   -12.0150 ca         1 SDK      -0.116500
     24 C24         -1.3990    -0.5330   -11.8430 ca         1 SDK      -0.134000
     25 C25         -0.9060    -0.9110   -10.6030 ca         1 SDK      -0.102750
     26 C26         -1.7680    -1.0780    -9.5210 ca         1 SDK      -0.100800
     27 C27         -3.1290    -0.8590    -9.7000 ca         1 SDK      -0.102750
     28 C28         -3.6270    -0.4850   -10.9420 ca         1 SDK      -0.134000
     29 C29         -1.2280    -1.4730    -8.1800 c3         1 SDK       0.208700
     30 O30         -0.6400    -0.3020    -7.6000 os         1 SDK      -0.428900
     31 C31         -0.0510    -0.4460    -6.4120 c          1 SDK       0.756600
     32 O32         -0.0010    -1.4900    -5.7930 o          1 SDK      -0.596500
     33 C33          1.0510     0.8180    -4.6730 c3         1 SDK       0.052700
     34 C34          1.7360     2.1750    -4.4960 c3         1 SDK      -0.085900
     35 C35          2.8870     2.4490    -5.4690 c3         1 SDK      -0.058700
     36 C36          3.4790     3.8230    -5.1700 c3         1 SDK      -0.091100
     37 C37          3.9650     1.3720    -5.4060 c3         1 SDK      -0.091100
     38 C38         -0.0440     0.6630    -3.6140 c          1 SDK       0.651600
     39 O39         -1.2050     0.9660    -3.8280 o          1 SDK      -0.594100
     40 N40          0.3970     0.2150    -2.4300 ns         1 SDK      -0.565900
     41 C41         -0.4540     0.0940    -1.2820 c3         1 SDK       0.000500
     42 N42          0.5020     0.7100    -5.9960 ns         1 SDK      -0.544900
     43 H1          -3.1540     0.1740    12.9390 ha         1 SDK       0.131000
     44 H2          -0.7070     0.3090    12.5980 ha         1 SDK       0.132250
     45 H3           0.2020     0.9290    10.3950 ha         1 SDK       0.133500
     46 H5          -3.7760     1.2640     8.8470 ha         1 SDK       0.133500
     47 H6          -4.6870     0.6590    11.0570 ha         1 SDK       0.132250
     48 H71         -0.3950     2.2670     8.2270 h1         1 SDK       0.056950
     49 H72         -1.9560     1.9010     7.4810 h1         1 SDK       0.056950
     50 H11          1.8020    -0.1060     4.4880 h1         1 SDK       0.081700
     51 H121         2.0820    -2.3280     3.4580 hc         1 SDK       0.056200
     52 H122         0.9320    -3.0270     4.5790 hc         1 SDK       0.056200
     53 H13          2.4410    -2.5500     6.4760 hc         1 SDK       0.051200
     54 H141         4.2010    -4.1860     5.8750 hc         1 SDK       0.036117
     55 H142         2.6400    -4.6990     5.2390 hc         1 SDK       0.036117
     56 H143         3.8360    -3.9730     4.1640 hc         1 SDK       0.036117
     57 H151         4.3370    -1.3940     4.3760 hc         1 SDK       0.036117
     58 H152         3.5910    -0.5020     5.7040 hc         1 SDK       0.036117
     59 H153         4.7720    -1.7550     6.0440 hc         1 SDK       0.036117
     60 HN8          1.3750    -0.0630     2.2810 hn         1 SDK       0.335500
     61 H191        -1.1150    -1.0300     1.1500 h1         1 SDK       0.079450
     62 H192        -1.1070     0.7100     1.3200 h1         1 SDK       0.079450
     63 HN2          0.2700    -1.5810     6.4810 hn         1 SDK       0.335000
     64 H24         -0.7210    -0.4090   -12.6770 ha         1 SDK       0.132250
     65 H25          0.1560    -1.0830   -10.4770 ha         1 SDK       0.133500
     66 H27         -3.8080    -0.9860    -8.8650 ha         1 SDK       0.133500
     67 H28         -4.6890    -0.3240   -11.0700 ha         1 SDK       0.132250
     68 H291        -0.4740    -2.2560    -8.2820 h1         1 SDK       0.056950
     69 H292        -2.0260    -1.8520    -7.5380 h1         1 SDK       0.056950
     70 H33          1.7930     0.0270    -4.5280 h1         1 SDK       0.081700
     71 H341         0.9850     2.9660    -4.5880 hc         1 SDK       0.056200
     72 H342         2.1190     2.2320    -3.4730 hc         1 SDK       0.056200
     73 H35          2.4870     2.4710    -6.4880 hc         1 SDK       0.051200
     74 H361         4.2750     4.0690    -5.8740 hc         1 SDK       0.036117
     75 H362         2.7240     4.6080    -5.2350 hc         1 SDK       0.036117
     76 H363         3.9050     3.8520    -4.1640 hc         1 SDK       0.036117
     77 H371         4.3540     1.2650    -4.3910 hc         1 SDK       0.036117
     78 H372         3.5990     0.3970    -5.7290 hc         1 SDK       0.036117
     79 H373         4.8030     1.6310    -6.0540 hc         1 SDK       0.036117
     80 HN4          1.3620    -0.0590    -2.3290 hn         1 SDK       0.335500
     81 H411        -1.1280    -0.7670    -1.3560 h1         1 SDK       0.079450
     82 H412        -1.0980     0.9730    -1.1810 h1         1 SDK       0.079450
     83 HN           0.2890     1.5570    -6.4990 hn         1 SDK       0.335000
     84 H23         -3.1480    -0.0290   -12.9830 ha         1 SDK       0.131000
@<TRIPOS>BOND
     1     1     2 ar  
     2     1     6 ar  
     3     1    43 1   
     4     2     3 ar  
     5     2    44 1   
     6     3     4 ar  
     7     3    45 1   
     8     4     5 ar  
     9     4     7 1   
    10     5     6 ar  
    11     5    46 1   
    12     6    47 1   
    13     7     8 1   
    14     7    48 1   
    15     7    49 1   
    16     8     9 1   
    17     9    10 2   
    18     9    20 1   
    19    11    12 1   
    20    11    16 1   
    21    11    20 1   
    22    11    50 1   
    23    12    13 1   
    24    12    51 1   
    25    12    52 1   
    26    13    14 1   
    27    13    15 1   
    28    13    53 1   
    29    14    54 1   
    30    14    55 1   
    31    14    56 1   
    32    15    57 1   
    33    15    58 1   
    34    15    59 1   
    35    16    17 2   
    36    16    18 1   
    37    18    19 1   
    38    18    60 1   
    39    19    21 1   
    40    19    61 1   
    41    19    62 1   
    42    20    63 1   
    43    21    22 2   
    44    21    41 1   
    45    23    24 ar  
    46    23    28 ar  
    47    23    84 1   
    48    24    25 ar  
    49    24    64 1   
    50    25    26 ar  
    51    25    65 1   
    52    26    27 ar  
    53    26    29 1   
    54    27    28 ar  
    55    27    66 1   
    56    28    67 1   
    57    29    30 1   
    58    29    68 1   
    59    29    69 1   
    60    30    31 1   
    61    31    32 2   
    62    31    42 1   
    63    33    34 1   
    64    33    38 1   
    65    33    42 1   
    66    33    70 1   
    67    34    35 1   
    68    34    71 1   
    69    34    72 1   
    70    35    36 1   
    71    35    37 1   
    72    35    73 1   
    73    36    74 1   
    74    36    75 1   
    75    36    76 1   
    76    37    77 1   
    77    37    78 1   
    78    37    79 1   
    79    38    39 2   
    80    38    40 1   
    81    40    41 1   
    82    40    80 1   
    83    41    81 1   
    84    41    82 1   
    85    42    83 1   
@<TRIPOS>SUBSTRUCTURE
     1 SDK         1 TEMP              0 ****  ****    0 ROOT
