@<TRIPOS>MOLECULE
SDL
   41    43     1     0     0
SMALL
No Charge or Current Charge


@<TRIPOS>ATOM
      1 O5          -0.6980    -1.9680     0.6920 o          1 SDL      -0.588000
      2 C5           0.1220    -1.0680     0.5600 c          1 SDL       0.587000
      3 N1           1.5150    -1.1910     0.6140 n          1 SDL      -0.255000
      4 C10          2.1930    -2.4810     0.8330 c3         1 SDL       0.153200
      5 C11          2.3650    -3.2530    -0.4600 c2         1 SDL      -0.255200
      6 C12          3.4400    -3.2050    -1.2650 c2         1 SDL      -0.287000
      7 C6           2.1000     0.0580     0.3910 cc         1 SDL      -0.248600
      8 C9           1.0830     0.9550     0.1970 cd         1 SDL       0.309200
      9 N4           1.3390     2.2970    -0.0470 nd         1 SDL      -0.701300
     10 C8           2.6160     2.5880    -0.0720 cc         1 SDL       0.733800
     11 N3           2.9210     3.8520    -0.2970 nv         1 SDL      -1.041200
     12 N2           3.6550     1.7520     0.1070 ns         1 SDL      -0.444400
     13 C7           3.5140     0.4350     0.3510 c          1 SDL       0.620200
     14 O4           4.4710    -0.3050     0.5150 o          1 SDL      -0.548000
     15 N           -0.1110     0.2850     0.2940 n          1 SDL      -0.293000
     16 C4          -1.4320     0.9380     0.1970 c5         1 SDL       0.341700
     17 C3          -1.9280     0.7700    -1.2900 c5         1 SDL       0.108300
     18 O2          -2.5650     1.9410    -1.8230 oh         1 SDL      -0.714000
     19 C2          -3.0170    -0.3300    -1.1190 c5         1 SDL       0.088300
     20 O1          -3.9740    -0.2670    -2.2000 oh         1 SDL      -0.715000
     21 O3          -2.4130     0.3150     1.0600 os         1 SDL      -0.434000
     22 C1          -3.6010     0.0770     0.2720 c5         1 SDL       0.173300
     23 C           -4.5000    -0.9970     0.9470 c3         1 SDL       0.159600
     24 O           -5.1370    -0.4850     2.1340 oh         1 SDL      -0.708000
     25 H1           3.1670    -2.3100     1.3070 h1         1 SDL       0.074700
     26 H2           1.5980    -3.0760     1.5390 h1         1 SDL       0.074700
     27 H3           1.5110    -3.8860    -0.7140 ha         1 SDL       0.175000
     28 H4           4.3040    -2.5800    -1.0350 ha         1 SDL       0.167500
     29 H5           3.4920    -3.7900    -2.1850 ha         1 SDL       0.167500
     30 H7           2.1170     4.4640    -0.2480 hn         1 SDL       0.504500
     31 H8           3.7560     4.2090     0.1500 hn         1 SDL       0.504500
     32 H9          -1.2940     1.9960     0.4530 h2         1 SDL       0.116700
     33 H10         -1.1220     0.4340    -1.9580 h1         1 SDL       0.071700
     34 H11         -3.3530     1.5550    -2.2890 ho         1 SDL       0.525000
     35 H12         -2.5510    -1.3250    -1.0640 h1         1 SDL       0.084700
     36 H13         -4.3930    -1.1580    -2.2870 ho         1 SDL       0.515000
     37 H14         -4.1700     1.0150     0.1950 h1         1 SDL       0.079700
     38 H15         -5.2630    -1.3160     0.2240 h1         1 SDL       0.033700
     39 H16         -3.8840    -1.8740     1.1860 h1         1 SDL       0.033700
     40 H17         -5.6300    -1.2340     2.5440 ho         1 SDL       0.503000
     41 H6           4.5940     2.1040     0.0360 hn         1 SDL       0.326500
@<TRIPOS>BOND
     1     1     2 2   
     2     2     3 1   
     3     2    15 1   
     4     3     4 1   
     5     3     7 1   
     6     4     5 1   
     7     4    25 1   
     8     4    26 1   
     9     5     6 2   
    10     5    27 1   
    11     6    28 1   
    12     6    29 1   
    13     7     8 2   
    14     7    13 1   
    15     8     9 1   
    16     8    15 1   
    17     9    10 2   
    18    10    11 1   
    19    10    12 1   
    20    11    30 1   
    21    11    31 1   
    22    12    13 1   
    23    12    41 1   
    24    13    14 2   
    25    15    16 1   
    26    16    17 1   
    27    16    21 1   
    28    16    32 1   
    29    17    18 1   
    30    17    19 1   
    31    17    33 1   
    32    18    34 1   
    33    19    20 1   
    34    19    22 1   
    35    19    35 1   
    36    20    36 1   
    37    21    22 1   
    38    22    23 1   
    39    22    37 1   
    40    23    24 1   
    41    23    38 1   
    42    23    39 1   
    43    24    40 1   
@<TRIPOS>SUBSTRUCTURE
     1 SDL         1 TEMP              0 ****  ****    0 ROOT
