@<TRIPOS>MOLECULE
SDL
   41    43     1     0     0
SMALL
bcc


@<TRIPOS>ATOM
      1 O5          -0.8300    -1.9870    -0.0580 o          1 SDL      -0.663500
      2 C5           0.0230    -1.1240     0.0580 c          1 SDL       0.796500
      3 N1           1.3290    -1.2960     0.4030 n          1 SDL      -0.322000
      4 C10          1.9600    -2.5960     0.5230 c3         1 SDL       0.153200
      5 C11          2.5560    -3.0430    -0.7770 c2         1 SDL      -0.205200
      6 C12          3.8540    -3.2450    -0.9630 c2         1 SDL      -0.187000
      7 C6           1.9760    -0.0640     0.3810 cc         1 SDL      -0.248600
      8 C9           1.0430     0.8870     0.0570 cd         1 SDL       0.309200
      9 N4           1.2270     2.2040    -0.0330 nd         1 SDL      -0.701300
     10 C8           2.4560     2.5900     0.2260 cc         1 SDL       0.733800
     11 N3           2.7830     3.8840     0.1240 nv         1 SDL      -0.930800
     12 N2           3.4390     1.7160     0.5680 ns         1 SDL      -0.511400
     13 C7           3.2960     0.3260     0.7020 c          1 SDL       0.762700
     14 O4           4.2430    -0.3610     1.0560 o          1 SDL      -0.623500
     15 N           -0.1490     0.2420    -0.1500 n          1 SDL      -0.360000
     16 C4          -1.4060     0.9000    -0.4130 c5         1 SDL       0.318500
     17 C3          -2.1660     0.4040    -1.6520 c5         1 SDL       0.085100
     18 O2          -2.6540     1.5320    -2.3300 oh         1 SDL      -0.591800
     19 C2          -3.3280    -0.4060    -1.0540 c5         1 SDL       0.065100
     20 O1          -4.5060    -0.3120    -1.8130 oh         1 SDL      -0.592800
     21 O3          -2.2560     0.7470     0.6940 os         1 SDL      -0.387600
     22 C1          -3.5300     0.2510     0.3100 c5         1 SDL       0.150100
     23 C           -4.0400    -0.7200     1.3470 c3         1 SDL       0.136400
     24 O           -4.2860    -0.0320     2.5500 oh         1 SDL      -0.585800
     25 H1           2.7170    -2.5460     1.3030 h1         1 SDL       0.074700
     26 H2           1.1930    -3.2970     0.8540 h1         1 SDL       0.074700
     27 H3           1.8570    -3.1980    -1.5940 ha         1 SDL       0.125000
     28 H4           4.5720    -3.0850    -0.1690 ha         1 SDL       0.117500
     29 H5           4.2440    -3.5750    -1.9170 ha         1 SDL       0.117500
     30 H7           2.0340     4.5460     0.0120 hn         1 SDL       0.449300
     31 H8           3.6370     4.2370     0.5220 hn         1 SDL       0.449300
     32 H9          -1.1490     1.9530    -0.5570 h2         1 SDL       0.116700
     33 H10         -1.5290    -0.2050    -2.3030 h1         1 SDL       0.071700
     34 H11         -3.5250     1.2970    -2.6770 ho         1 SDL       0.426000
     35 H12         -3.0160    -1.4450    -0.9290 h1         1 SDL       0.084700
     36 H13         -4.5180    -1.0300    -2.4550 ho         1 SDL       0.416000
     37 H14         -4.2400     1.0840     0.2090 h1         1 SDL       0.079700
     38 H15         -4.9530    -1.1820     0.9480 h1         1 SDL       0.033700
     39 H16         -3.2990    -1.5190     1.4720 h1         1 SDL       0.033700
     40 H17         -4.5850    -0.6710     3.2020 ho         1 SDL       0.404000
     41 H6           4.3630     2.0780     0.7670 hn         1 SDL       0.326500
@<TRIPOS>BOND
     1     1     2 2   
     2     2     3 1   
     3     2    15 1   
     4     3     4 1   
     5     3     7 1   
     6     4     5 1   
     7     4    25 1   
     8     4    26 1   
     9     5     6 2   
    10     5    27 1   
    11     6    28 1   
    12     6    29 1   
    13     7     8 2   
    14     7    13 1   
    15     8     9 1   
    16     8    15 1   
    17     9    10 2   
    18    10    11 1   
    19    10    12 1   
    20    11    30 1   
    21    11    31 1   
    22    12    13 1   
    23    12    41 1   
    24    13    14 2   
    25    15    16 1   
    26    16    17 1   
    27    16    21 1   
    28    16    32 1   
    29    17    18 1   
    30    17    19 1   
    31    17    33 1   
    32    18    34 1   
    33    19    20 1   
    34    19    22 1   
    35    19    35 1   
    36    20    36 1   
    37    21    22 1   
    38    22    23 1   
    39    22    37 1   
    40    23    24 1   
    41    23    38 1   
    42    23    39 1   
    43    24    40 1   
@<TRIPOS>SUBSTRUCTURE
     1 SDL         1 TEMP              0 ****  ****    0 ROOT
