@<TRIPOS>MOLECULE
SDM
   27    28     1     0     0
SMALL
abcg2


@<TRIPOS>ATOM
      1 C1          20.2040    17.9880    -7.0030 cc         1 SDM      -0.190000
      2 C2          20.1110    18.9490    -7.9640 cd         1 SDM      -0.108200
      3 C3          19.8930    20.2560    -7.4300 ca         1 SDM      -0.117800
      4 C4          19.7350    21.4750    -8.1260 ca         1 SDM       0.191100
      5 C5          19.5760    22.5550   -10.2840 c3         1 SDM       0.162600
      6 C7          19.5230    22.6390    -7.4010 ca         1 SDM      -0.212000
      7 C9          19.6220    21.4260    -5.2870 ca         1 SDM      -0.124000
      8 N           20.0220    15.6360    -6.3390 n2         1 SDM      -0.846100
      9 C           20.3890    16.5350    -7.1860 ce         1 SDM       0.694500
     10 O           19.8250    21.3890    -9.4750 os         1 SDM      -0.352100
     11 C10         19.8290    20.2570    -6.0210 ca         1 SDM      -0.114000
     12 C6          18.0950    22.8370   -10.4410 c3         1 SDM      -0.126100
     13 C8          19.4710    22.6030    -5.9980 ca         1 SDM      -0.054000
     14 N1          20.9500    16.1720    -8.3780 nv         1 SDM      -1.038200
     15 S           20.0430    18.6490    -5.3900 ss         1 SDM       0.064400
     16 H2          20.1680    18.7390    -9.0210 ha         1 SDM       0.217000
     17 H3          20.0250    22.3090   -11.2450 h1         1 SDM       0.055200
     18 H4          20.1130    23.4110    -9.8710 h1         1 SDM       0.055200
     19 H8          19.3900    23.5870    -7.9000 ha         1 SDM       0.120000
     20 H10         19.5760    21.4120    -4.2070 ha         1 SDM       0.127000
     21 H           19.5320    16.0540    -5.5520 hn         1 SDM       0.387400
     22 H5          17.9590    23.6920   -11.1070 hc         1 SDM       0.049367
     23 H6          17.5880    21.9760   -10.8800 hc         1 SDM       0.049367
     24 H7          17.6230    23.0700    -9.4870 hc         1 SDM       0.049367
     25 H9          19.3030    23.5290    -5.4630 ha         1 SDM       0.114000
     26 H12         21.1900    15.1980    -8.4820 hn         1 SDM       0.475000
     27 H11         21.5570    16.8240    -8.8460 hn         1 SDM       0.475000
@<TRIPOS>BOND
     1     1     2 2   
     2     1     9 1   
     3     1    15 1   
     4     2     3 1   
     5     2    16 1   
     6     3     4 ar  
     7     3    11 ar  
     8     4     6 ar  
     9     4    10 1   
    10     5    10 1   
    11     5    12 1   
    12     5    17 1   
    13     5    18 1   
    14     6    13 ar  
    15     6    19 1   
    16     7    11 ar  
    17     7    13 ar  
    18     7    20 1   
    19     8     9 2   
    20     8    21 1   
    21     9    14 1   
    22    11    15 1   
    23    12    22 1   
    24    12    23 1   
    25    12    24 1   
    26    13    25 1   
    27    14    26 1   
    28    14    27 1   
@<TRIPOS>SUBSTRUCTURE
     1 SDM         1 TEMP              0 ****  ****    0 ROOT
