@<TRIPOS>MOLECULE
SDM
   27    28     1     0     0
SMALL
No Charge or Current Charge


@<TRIPOS>ATOM
      1 C1          20.2120    17.9510    -7.0040 cc         1 SDM      -0.190000
      2 C2          20.1350    18.9700    -7.9410 cd         1 SDM      -0.108200
      3 C3          19.9050    20.2920    -7.4060 ca         1 SDM      -0.117800
      4 C4          19.7880    21.4980    -8.1180 ca         1 SDM       0.191100
      5 C5          19.6180    22.6010   -10.3400 c3         1 SDM       0.162600
      6 C7          19.5670    22.6880    -7.3820 ca         1 SDM      -0.212000
      7 C9          19.5700    21.4150    -5.2910 ca         1 SDM      -0.124000
      8 N           20.0220    15.6450    -6.3970 n2         1 SDM      -0.846100
      9 C           20.4040    16.5230    -7.2280 ce         1 SDM       0.694500
     10 O           19.9140    21.4710    -9.4960 os         1 SDM      -0.352100
     11 C10         19.7970    20.2470    -6.0330 ca         1 SDM      -0.114000
     12 C6          18.0880    22.7800   -10.4130 c3         1 SDM      -0.126100
     13 C8          19.4570    22.6420    -5.9740 ca         1 SDM      -0.054000
     14 N1          20.8880    16.0880    -8.4030 nv         1 SDM      -1.038200
     15 S           19.9680    18.6050    -5.3520 ss         1 SDM       0.064400
     16 H2          20.2240    18.7880    -9.0100 ha         1 SDM       0.217000
     17 H3          19.9930    22.4110   -11.3540 h1         1 SDM       0.055200
     18 H4          20.1040    23.5160    -9.9780 h1         1 SDM       0.055200
     19 H8          19.4820    23.6500    -7.8770 ha         1 SDM       0.120000
     20 H10         19.4850    21.3770    -4.2070 ha         1 SDM       0.127000
     21 H           19.6020    16.1380    -5.5990 hn         1 SDM       0.387400
     22 H5          17.8370    23.5970   -11.1000 hc         1 SDM       0.049367
     23 H6          17.6110    21.8650   -10.7830 hc         1 SDM       0.049367
     24 H7          17.6640    23.0210    -9.4310 hc         1 SDM       0.049367
     25 H9          19.2850    23.5580    -5.4140 ha         1 SDM       0.114000
     26 H12         21.1610    15.1140    -8.3850 hn         1 SDM       0.475000
     27 H11         21.5310    16.7160    -8.8690 hn         1 SDM       0.475000
@<TRIPOS>BOND
     1     1     2 2   
     2     1     9 1   
     3     1    15 1   
     4     2     3 1   
     5     2    16 1   
     6     3     4 ar  
     7     3    11 ar  
     8     4     6 ar  
     9     4    10 1   
    10     5    10 1   
    11     5    12 1   
    12     5    17 1   
    13     5    18 1   
    14     6    13 ar  
    15     6    19 1   
    16     7    11 ar  
    17     7    13 ar  
    18     7    20 1   
    19     8     9 2   
    20     8    21 1   
    21     9    14 1   
    22    11    15 1   
    23    12    22 1   
    24    12    23 1   
    25    12    24 1   
    26    13    25 1   
    27    14    26 1   
    28    14    27 1   
@<TRIPOS>SUBSTRUCTURE
     1 SDM         1 TEMP              0 ****  ****    0 ROOT
