@<TRIPOS>MOLECULE
SDN
   34    36     1     0     0
SMALL
No Charge or Current Charge


@<TRIPOS>ATOM
      1 O4           4.2370    -1.7750     0.5940 oh         1 SDN      -0.575100
      2 C11          3.9650    -0.4590     0.3950 ca         1 SDN       0.222100
      3 C12          2.6410    -0.0300     0.1550 ca         1 SDN      -0.278600
      4 C13          1.4920    -1.0010     0.1130 c          1 SDN       0.630900
      5 O5           1.6990    -2.1930     0.3190 o          1 SDN      -0.658100
      6 C14          0.1390    -0.4490    -0.1590 cc         1 SDN      -0.375200
      7 C15         -0.9540    -1.2710    -0.2380 c2         1 SDN       0.295900
      8 O3          -2.2290    -0.7790    -0.3550 os         1 SDN      -0.285100
      9 C16         -0.9500    -2.7230    -0.6800 c3         1 SDN      -0.073900
     10 C10          5.0200     0.4610     0.4330 ca         1 SDN      -0.214000
     11 C9           4.7720     1.8270     0.2350 ca         1 SDN      -0.043000
     12 C8           3.4590     2.2620    -0.0020 ca         1 SDN      -0.191000
     13 C7           2.3990     1.3390    -0.0420 ca         1 SDN       0.072200
     14 C6           1.0420     1.8080    -0.2900 cd         1 SDN      -0.246200
     15 C5          -0.0430     0.9690    -0.3510 cc         1 SDN       0.024800
     16 C4          -1.4310     1.4960    -0.6280 c6         1 SDN      -0.093200
     17 C3          -2.4710     0.5780     0.0450 c6         1 SDN       0.192300
     18 C2          -3.9290     0.9410    -0.3330 c3         1 SDN      -0.221400
     19 C1          -4.9150     0.1500     0.5280 c          1 SDN       0.726000
     20 O2          -5.1980     0.6000     1.6280 o          1 SDN      -0.725000
     21 O1          -5.3520    -0.9050     0.0950 o          1 SDN      -0.725000
     22 HO4          3.3510    -2.2260     0.5370 ho         1 SDN       0.525000
     23 H161        -0.7030    -3.3850     0.1570 hc         1 SDN       0.075033
     24 H162        -1.9270    -3.0370    -1.0670 hc         1 SDN       0.075033
     25 H163        -0.2170    -2.8910    -1.4770 hc         1 SDN       0.075033
     26 H10          6.0340     0.1170     0.6180 ha         1 SDN       0.117000
     27 H9           5.5900     2.5430     0.2650 ha         1 SDN       0.098000
     28 H8           3.2670     3.3210    -0.1550 ha         1 SDN       0.108000
     29 H6           0.8820     2.8710    -0.4430 ha         1 SDN       0.175000
     30 H41         -1.5490     2.5200    -0.2500 hc         1 SDN       0.063200
     31 H42         -1.6140     1.5380    -1.7100 hc         1 SDN       0.063200
     32 H3          -2.3520     0.6480     1.1370 h1         1 SDN       0.088700
     33 H21         -4.0360     2.0100    -0.1120 hc         1 SDN       0.038200
     34 H22         -4.0640     0.7020    -1.3950 hc         1 SDN       0.038200
@<TRIPOS>BOND
     1     1     2 1   
     2     1    22 1   
     3     2     3 ar  
     4     2    10 ar  
     5     3     4 1   
     6     3    13 ar  
     7     4     5 2   
     8     4     6 1   
     9     6     7 2   
    10     6    15 1   
    11     7     8 1   
    12     7     9 1   
    13     8    17 1   
    14     9    23 1   
    15     9    24 1   
    16     9    25 1   
    17    10    11 ar  
    18    10    26 1   
    19    11    12 ar  
    20    11    27 1   
    21    12    13 ar  
    22    12    28 1   
    23    13    14 1   
    24    14    15 2   
    25    14    29 1   
    26    15    16 1   
    27    16    17 1   
    28    16    30 1   
    29    16    31 1   
    30    17    18 1   
    31    17    32 1   
    32    18    19 1   
    33    18    33 1   
    34    18    34 1   
    35    19    20 1   
    36    19    21 1   
@<TRIPOS>SUBSTRUCTURE
     1 SDN         1 TEMP              0 ****  ****    0 ROOT
