@<TRIPOS>MOLECULE
SDN
   34    36     1     0     0
SMALL
abcg2


@<TRIPOS>ATOM
      1 O4           4.1770    -1.7540     0.4650 oh         1 SDN      -0.575100
      2 C11          3.9110    -0.4570     0.3310 ca         1 SDN       0.222100
      3 C12          2.5930     0.0070     0.1020 ca         1 SDN      -0.278600
      4 C13          1.4960    -0.9500     0.0090 c          1 SDN       0.630900
      5 O5           1.7250    -2.1700     0.1420 o          1 SDN      -0.658100
      6 C14          0.1640    -0.4190    -0.2090 cc         1 SDN      -0.375200
      7 C15         -0.9430    -1.2500    -0.3010 c2         1 SDN       0.295900
      8 O3          -2.1640    -0.7800    -0.3110 os         1 SDN      -0.285100
      9 C16         -0.9310    -2.7360    -0.4080 c3         1 SDN      -0.073900
     10 C10          4.9590     0.4550     0.4210 ca         1 SDN      -0.214000
     11 C9           4.7050     1.8120     0.2870 ca         1 SDN      -0.043000
     12 C8           3.4240     2.2880     0.0660 ca         1 SDN      -0.191000
     13 C7           2.3570     1.3930    -0.0290 ca         1 SDN       0.072200
     14 C6           1.0200     1.8590    -0.2690 cd         1 SDN      -0.246200
     15 C5          -0.0200     1.0080    -0.3570 cc         1 SDN       0.024800
     16 C4          -1.4010     1.4720    -0.6940 c6         1 SDN      -0.093200
     17 C3          -2.4180     0.6080     0.0130 c6         1 SDN       0.192300
     18 C2          -3.8470     0.8920    -0.3740 c3         1 SDN      -0.221400
     19 C1          -4.8980     0.0690     0.3980 c          1 SDN       0.726000
     20 O2          -4.6170    -0.2420     1.5710 o          1 SDN      -0.725000
     21 O1          -5.9560    -0.1790    -0.2100 o          1 SDN      -0.725000
     22 HO4          3.3040    -2.2240     0.3730 ho         1 SDN       0.525000
     23 H161        -0.6500    -3.1830     0.5470 hc         1 SDN       0.075033
     24 H162        -1.9240    -3.0920    -0.6740 hc         1 SDN       0.075033
     25 H163        -0.2110    -3.0840    -1.1440 hc         1 SDN       0.075033
     26 H10          5.9650     0.0940     0.5960 ha         1 SDN       0.117000
     27 H9           5.5290     2.5110     0.3600 ha         1 SDN       0.098000
     28 H8           3.2440     3.3500    -0.0350 ha         1 SDN       0.108000
     29 H6           0.8630     2.9240    -0.3970 ha         1 SDN       0.175000
     30 H41         -1.5420     2.5140    -0.4030 hc         1 SDN       0.063200
     31 H42         -1.5580     1.4180    -1.7780 hc         1 SDN       0.063200
     32 H3          -2.2970     0.7000     1.0970 h1         1 SDN       0.088700
     33 H21         -4.0320     1.9520    -0.1640 hc         1 SDN       0.038200
     34 H22         -3.9710     0.7720    -1.4540 hc         1 SDN       0.038200
@<TRIPOS>BOND
     1     1     2 1   
     2     1    22 1   
     3     2     3 ar  
     4     2    10 ar  
     5     3     4 1   
     6     3    13 ar  
     7     4     5 2   
     8     4     6 1   
     9     6     7 2   
    10     6    15 1   
    11     7     8 1   
    12     7     9 1   
    13     8    17 1   
    14     9    23 1   
    15     9    24 1   
    16     9    25 1   
    17    10    11 ar  
    18    10    26 1   
    19    11    12 ar  
    20    11    27 1   
    21    12    13 ar  
    22    12    28 1   
    23    13    14 1   
    24    14    15 2   
    25    14    29 1   
    26    15    16 1   
    27    16    17 1   
    28    16    30 1   
    29    16    31 1   
    30    17    18 1   
    31    17    32 1   
    32    18    19 1   
    33    18    33 1   
    34    18    34 1   
    35    19    20 1   
    36    19    21 1   
@<TRIPOS>SUBSTRUCTURE
     1 SDN         1 TEMP              0 ****  ****    0 ROOT
