@<TRIPOS>MOLECULE
SDO
   66    65     1     0     0
SMALL
No Charge or Current Charge


@<TRIPOS>ATOM
      1 P24         -8.1650     3.2750     1.3300 p3         1 SDO       0.198300
      2 O26         -7.2630     4.6420     1.0310 oh         1 SDO      -0.531600
      3 O23         -9.7070     3.7090     0.8740 oh         1 SDO      -0.531600
      4 O27         -7.6830     2.2100     0.1470 os         1 SDO      -0.326100
      5 C28         -7.2040     0.9020     0.5010 c3         1 SDO       0.193600
      6 C29         -6.8180     0.1160    -0.7950 c3         1 SDO      -0.071000
      7 C30         -8.0580    -0.0070    -1.7330 c3         1 SDO      -0.083100
      8 C31         -5.7060     0.8890    -1.5650 c3         1 SDO      -0.083100
      9 C32         -6.2990    -1.3260    -0.4330 c3         1 SDO       0.100300
     10 O33         -7.3330    -2.0830     0.2480 oh         1 SDO      -0.648000
     11 C34         -4.9730    -1.3290     0.4000 c          1 SDO       0.566100
     12 O35         -4.9650    -1.2190     1.6200 o          1 SDO      -0.614100
     13 N36         -3.8120    -1.5460    -0.3130 ns         1 SDO      -0.497900
     14 C37         -2.4770    -1.5960     0.2830 c3         1 SDO       0.111000
     15 C38         -1.3840    -1.4570    -0.7880 c3         1 SDO      -0.181400
     16 C39          0.0020    -1.5010    -0.1480 c          1 SDO       0.601100
     17 O40          0.4550    -0.5690     0.4990 o          1 SDO      -0.590100
     18 N41          0.7170    -2.6540    -0.3790 ns         1 SDO      -0.506900
     19 C42          2.0770    -2.9070     0.1110 c3         1 SDO       0.113000
     20 C43          3.1440    -2.1010    -0.6580 c3         1 SDO       0.039600
     21 S1           4.8420    -2.4970    -0.0340 ss         1 SDO      -0.449000
     22 C1           5.8450    -1.3890    -1.1220 c3         1 SDO       0.081600
     23 C2           7.3400    -1.5400    -0.7850 c3         1 SDO      -0.175400
     24 C3           8.1850    -0.6180    -1.6660 c          1 SDO       0.571100
     25 O3           8.5420    -0.9540    -2.7880 o          1 SDO      -0.513100
     26 C4           8.5660     0.7490    -1.0790 c3         1 SDO      -0.183400
     27 C5           9.9650     0.7110    -0.4190 c3         1 SDO      -0.054400
     28 C6          10.3760     2.0730     0.1890 c3         1 SDO      -0.186400
     29 C7          11.7650     2.0020     0.8390 c          1 SDO       0.570100
     30 O7          12.7910     2.1170     0.1810 o          1 SDO      -0.514100
     31 C8          11.8050     1.7740     2.3490 c3         1 SDO      -0.202100
     32 H1          -6.7780     4.8700     1.8540 ho         1 SDO       0.462000
     33 H2         -10.3080     3.5200     1.6270 ho         1 SDO       0.462000
     34 H28A        -6.3290     0.9940     1.1570 h1         1 SDO       0.040200
     35 H28B        -7.9830     0.3570     1.0510 h1         1 SDO       0.040200
     36 H30A        -8.3900     0.9760    -2.0870 hc         1 SDO       0.041200
     37 H30B        -7.8220    -0.6140    -2.6150 hc         1 SDO       0.041200
     38 H30C        -8.9050    -0.4750    -1.2160 hc         1 SDO       0.041200
     39 H31A        -4.8410     1.0930    -0.9220 hc         1 SDO       0.041200
     40 H31B        -5.3580     0.3170    -2.4330 hc         1 SDO       0.041200
     41 H31C        -6.0750     1.8540    -1.9330 hc         1 SDO       0.041200
     42 H32A        -6.0620    -1.8330    -1.3780 h1         1 SDO       0.071700
     43 H33A        -7.1060    -2.0760     1.2070 ho         1 SDO       0.467000
     44 H36A        -3.8990    -1.6600    -1.3170 hn         1 SDO       0.315500
     45 H37A        -2.3800    -0.7830     1.0160 h1         1 SDO       0.072200
     46 H37B        -2.3610    -2.5510     0.8150 h1         1 SDO       0.072200
     47 H38A        -1.4940    -2.2720    -1.5130 hc         1 SDO       0.060700
     48 H38B        -1.5100    -0.4900    -1.2890 hc         1 SDO       0.060700
     49 H41A         0.2620    -3.3710    -0.9330 hn         1 SDO       0.313500
     50 H42A         2.1270    -2.6530     1.1790 h1         1 SDO       0.070200
     51 H42B         2.2930    -3.9790     0.0100 h1         1 SDO       0.070200
     52 H43A         3.0870    -2.3440    -1.7270 h1         1 SDO       0.066200
     53 H43B         2.9570    -1.0270    -0.5350 h1         1 SDO       0.066200
     54 H1A          5.6680    -1.6560    -2.1730 h1         1 SDO       0.071200
     55 H1B          5.5280    -0.3480    -0.9680 h1         1 SDO       0.071200
     56 H2A          7.4700    -1.2660     0.2680 hc         1 SDO       0.074200
     57 H2B          7.6380    -2.5810    -0.9540 hc         1 SDO       0.074200
     58 H4A          8.5710     1.4980    -1.8810 hc         1 SDO       0.059200
     59 H4B          7.8430     1.0260    -0.3020 hc         1 SDO       0.059200
     60 H5A          9.9760    -0.0570     0.3660 hc         1 SDO       0.066700
     61 H5B         10.7100     0.4090    -1.1680 hc         1 SDO       0.066700
     62 H6A         10.3890     2.8270    -0.6070 hc         1 SDO       0.057200
     63 H6B          9.6320     2.3330     0.9510 hc         1 SDO       0.057200
     64 H8A         11.2000     0.8930     2.5940 hc         1 SDO       0.060367
     65 H8B         12.8260     1.6910     2.7380 hc         1 SDO       0.060367
     66 H8C         11.2510     2.5800     2.8430 hc         1 SDO       0.060367
@<TRIPOS>BOND
     1     1     2 1   
     2     1     3 1   
     3     1     4 1   
     4     2    32 1   
     5     3    33 1   
     6     4     5 1   
     7     5     6 1   
     8     5    34 1   
     9     5    35 1   
    10     6     7 1   
    11     6     8 1   
    12     6     9 1   
    13     7    36 1   
    14     7    37 1   
    15     7    38 1   
    16     8    39 1   
    17     8    40 1   
    18     8    41 1   
    19     9    10 1   
    20     9    11 1   
    21     9    42 1   
    22    10    43 1   
    23    11    12 2   
    24    11    13 1   
    25    13    14 1   
    26    13    44 1   
    27    14    15 1   
    28    14    45 1   
    29    14    46 1   
    30    15    16 1   
    31    15    47 1   
    32    15    48 1   
    33    16    17 2   
    34    16    18 1   
    35    18    19 1   
    36    18    49 1   
    37    19    20 1   
    38    19    50 1   
    39    19    51 1   
    40    20    21 1   
    41    20    52 1   
    42    20    53 1   
    43    21    22 1   
    44    22    23 1   
    45    22    54 1   
    46    22    55 1   
    47    23    24 1   
    48    23    56 1   
    49    23    57 1   
    50    24    25 2   
    51    24    26 1   
    52    26    27 1   
    53    26    58 1   
    54    26    59 1   
    55    27    28 1   
    56    27    60 1   
    57    27    61 1   
    58    28    29 1   
    59    28    62 1   
    60    28    63 1   
    61    29    30 2   
    62    29    31 1   
    63    31    64 1   
    64    31    65 1   
    65    31    66 1   
@<TRIPOS>SUBSTRUCTURE
     1 SDO         1 TEMP              0 ****  ****    0 ROOT
