@<TRIPOS>MOLECULE
SDO
   66    65     1     0     0
SMALL
bcc


@<TRIPOS>ATOM
      1 P24         -9.3770     2.4940     0.5440 p3         1 SDO       0.198300
      2 O26         -8.7040     2.8200     2.0080 oh         1 SDO      -0.492600
      3 O23         -9.3760     3.9860    -0.1270 oh         1 SDO      -0.492600
      4 O27         -8.0240     2.0130    -0.2460 os         1 SDO      -0.302900
      5 C28         -7.5350     0.7060     0.0250 c3         1 SDO       0.170400
      6 C29         -6.9640     0.0970    -1.2580 c3         1 SDO      -0.071000
      7 C30         -8.0550     0.0220    -2.3300 c3         1 SDO      -0.083100
      8 C31         -5.8110     0.9540    -1.7840 c3         1 SDO      -0.083100
      9 C32         -6.4660    -1.3510    -0.9890 c3         1 SDO       0.077100
     10 O33         -7.4950    -2.2110    -0.5770 oh         1 SDO      -0.585800
     11 C34         -5.3410    -1.4170     0.0450 c          1 SDO       0.633100
     12 O35         -5.6090    -1.5260     1.2370 o          1 SDO      -0.614100
     13 N36         -4.0910    -1.3660    -0.4220 ns         1 SDO      -0.564900
     14 C37         -2.9310    -1.3270     0.4460 c3         1 SDO       0.111000
     15 C38         -1.6670    -1.5760    -0.3620 c3         1 SDO      -0.181400
     16 C39         -0.4320    -1.4370     0.5020 c          1 SDO       0.668100
     17 O40         -0.3070    -0.5200     1.3020 o          1 SDO      -0.590100
     18 N41          0.5050    -2.3810     0.3200 ns         1 SDO      -0.573900
     19 C42          1.7770    -2.3740     1.0020 c3         1 SDO       0.113000
     20 C43          2.8200    -1.5500     0.2560 c3         1 SDO      -0.008300
     21 S1           4.3620    -1.5320     1.2120 ss         1 SDO      -0.353200
     22 C1           5.4680    -0.7530     0.0020 c3         1 SDO       0.033700
     23 C2           6.8420    -0.5960     0.6270 c3         1 SDO      -0.175400
     24 C3           7.8650     0.0180    -0.3000 c          1 SDO       0.571100
     25 O3           7.6040     0.2990    -1.4480 o          1 SDO      -0.513100
     26 C4           9.2250     0.2530     0.3050 c3         1 SDO      -0.183400
     27 C5          10.2790     0.7550    -0.6690 c3         1 SDO      -0.054400
     28 C6          11.6080     0.9620     0.0390 c3         1 SDO      -0.186400
     29 C7          12.7270     1.4600    -0.8390 c          1 SDO       0.570100
     30 O7          12.5540     1.7620    -1.9990 o          1 SDO      -0.514100
     31 C8          14.0780     1.5440    -0.1820 c3         1 SDO      -0.202100
     32 H1          -9.2900     2.5490     2.7240 ho         1 SDO       0.423000
     33 H2         -10.2730     4.2790    -0.3180 ho         1 SDO       0.423000
     34 H28A        -6.7710     0.7720     0.8030 h1         1 SDO       0.040200
     35 H28B        -8.3410     0.0660     0.4080 h1         1 SDO       0.040200
     36 H30A        -8.3770     1.0200    -2.6250 hc         1 SDO       0.041200
     37 H30B        -7.6820    -0.4780    -3.2260 hc         1 SDO       0.041200
     38 H30C        -8.9330    -0.5240    -1.9840 hc         1 SDO       0.041200
     39 H31A        -5.0220     1.0980    -1.0440 hc         1 SDO       0.041200
     40 H31B        -5.3620     0.5030    -2.6730 hc         1 SDO       0.041200
     41 H31C        -6.1710     1.9410    -2.0730 hc         1 SDO       0.041200
     42 H32A        -6.0950    -1.7320    -1.9460 h1         1 SDO       0.071700
     43 H33A        -7.5430    -2.1730     0.3860 ho         1 SDO       0.428000
     44 H36A        -3.9490    -1.2780    -1.4150 hn         1 SDO       0.315500
     45 H37A        -2.8710    -0.3610     0.9510 h1         1 SDO       0.072200
     46 H37B        -3.0360    -2.0920     1.2170 h1         1 SDO       0.072200
     47 H38A        -1.7100    -2.5580    -0.8380 hc         1 SDO       0.060700
     48 H38B        -1.5870    -0.8360    -1.1650 hc         1 SDO       0.060700
     49 H41A         0.3520    -3.0910    -0.3770 hn         1 SDO       0.313500
     50 H42A         1.6380    -1.9860     2.0110 h1         1 SDO       0.070200
     51 H42B         2.1160    -3.4060     1.0950 h1         1 SDO       0.070200
     52 H43A         3.0130    -1.9870    -0.7260 h1         1 SDO       0.066200
     53 H43B         2.4660    -0.5280     0.1120 h1         1 SDO       0.066200
     54 H1A          5.5150    -1.3800    -0.8900 h1         1 SDO       0.071200
     55 H1B          5.0580     0.2160    -0.2860 h1         1 SDO       0.071200
     56 H2A          6.7900     0.0170     1.5320 hc         1 SDO       0.074200
     57 H2B          7.2320    -1.5650     0.9550 hc         1 SDO       0.074200
     58 H4A          9.0940     0.9620     1.1320 hc         1 SDO       0.059200
     59 H4B          9.5470    -0.6780     0.7830 hc         1 SDO       0.059200
     60 H5A         10.4000     0.0380    -1.4830 hc         1 SDO       0.066700
     61 H5B          9.9510     1.6920    -1.1210 hc         1 SDO       0.066700
     62 H6A         11.5010     1.6780     0.8620 hc         1 SDO       0.057200
     63 H6B         11.9450     0.0360     0.5180 hc         1 SDO       0.057200
     64 H8A         14.4720     0.5330    -0.0490 hc         1 SDO       0.060367
     65 H8B         14.7830     2.1150    -0.7830 hc         1 SDO       0.060367
     66 H8C         14.0050     1.9840     0.8130 hc         1 SDO       0.060367
@<TRIPOS>BOND
     1     1     2 1   
     2     1     3 1   
     3     1     4 1   
     4     2    32 1   
     5     3    33 1   
     6     4     5 1   
     7     5     6 1   
     8     5    34 1   
     9     5    35 1   
    10     6     7 1   
    11     6     8 1   
    12     6     9 1   
    13     7    36 1   
    14     7    37 1   
    15     7    38 1   
    16     8    39 1   
    17     8    40 1   
    18     8    41 1   
    19     9    10 1   
    20     9    11 1   
    21     9    42 1   
    22    10    43 1   
    23    11    12 2   
    24    11    13 1   
    25    13    14 1   
    26    13    44 1   
    27    14    15 1   
    28    14    45 1   
    29    14    46 1   
    30    15    16 1   
    31    15    47 1   
    32    15    48 1   
    33    16    17 2   
    34    16    18 1   
    35    18    19 1   
    36    18    49 1   
    37    19    20 1   
    38    19    50 1   
    39    19    51 1   
    40    20    21 1   
    41    20    52 1   
    42    20    53 1   
    43    21    22 1   
    44    22    23 1   
    45    22    54 1   
    46    22    55 1   
    47    23    24 1   
    48    23    56 1   
    49    23    57 1   
    50    24    25 2   
    51    24    26 1   
    52    26    27 1   
    53    26    58 1   
    54    26    59 1   
    55    27    28 1   
    56    27    60 1   
    57    27    61 1   
    58    28    29 1   
    59    28    62 1   
    60    28    63 1   
    61    29    30 2   
    62    29    31 1   
    63    31    64 1   
    64    31    65 1   
    65    31    66 1   
@<TRIPOS>SUBSTRUCTURE
     1 SDO         1 TEMP              0 ****  ****    0 ROOT
