@<TRIPOS>MOLECULE
SDQ
   16    16     1     0     0
SMALL
No Charge or Current Charge


@<TRIPOS>ATOM
      1 CAA         -6.8860    -6.9640    15.6670 ca         1 SDQ      -0.091500
      2 CAF         -6.0970    -7.8410    16.4320 ca         1 SDQ      -0.112000
      3 CAE         -6.5770    -9.1220    16.7520 ca         1 SDQ      -0.104000
      4 CAD         -7.8470    -9.5250    16.3070 ca         1 SDQ      -0.112000
      5 CAC         -8.6370    -8.6490    15.5430 ca         1 SDQ      -0.091500
      6 CAB         -8.1610    -7.3630    15.2180 ca         1 SDQ      -0.081300
      7 CAG         -9.0150    -6.4140    14.3870 c3         1 SDQ       0.147900
      8 SAH        -10.0730    -5.3990    15.5210 sh         1 SDQ      -0.464800
      9 H1          -6.5080    -5.9720    15.4260 ha         1 SDQ       0.115500
     10 H2          -5.1140    -7.5270    16.7770 ha         1 SDQ       0.113500
     11 H3          -5.9660    -9.8010    17.3440 ha         1 SDQ       0.114000
     12 H4          -8.2210   -10.5170    16.5550 ha         1 SDQ       0.113500
     13 H5          -9.6210    -8.9680    15.2040 ha         1 SDQ       0.115500
     14 H6          -9.6580    -6.9810    13.7020 h1         1 SDQ       0.063700
     15 H7          -8.3760    -5.7470    13.7930 h1         1 SDQ       0.063700
     16 H8         -10.6880    -4.6870    14.5440 hs         1 SDQ       0.208800
@<TRIPOS>BOND
     1     1     2 ar  
     2     1     6 ar  
     3     1     9 1   
     4     2     3 ar  
     5     2    10 1   
     6     3     4 ar  
     7     3    11 1   
     8     4     5 ar  
     9     4    12 1   
    10     5     6 ar  
    11     5    13 1   
    12     6     7 1   
    13     7     8 1   
    14     7    14 1   
    15     7    15 1   
    16     8    16 1   
@<TRIPOS>SUBSTRUCTURE
     1 SDQ         1 TEMP              0 ****  ****    0 ROOT
