@<TRIPOS>MOLECULE
SDQ
   16    16     1     0     0
SMALL
abcg2


@<TRIPOS>ATOM
      1 CAA         -6.9930    -6.9440    15.7460 ca         1 SDQ      -0.091500
      2 CAF         -6.1850    -7.7830    16.5000 ca         1 SDQ      -0.112000
      3 CAE         -6.5710    -9.1010    16.7460 ca         1 SDQ      -0.104000
      4 CAD         -7.7710    -9.5650    16.2220 ca         1 SDQ      -0.112000
      5 CAC         -8.5840    -8.7190    15.4730 ca         1 SDQ      -0.091500
      6 CAB         -8.2090    -7.3940    15.2270 ca         1 SDQ      -0.081300
      7 CAG         -9.1010    -6.5030    14.4140 c3         1 SDQ       0.147900
      8 SAH         -9.7340    -5.1300    15.4800 sh         1 SDQ      -0.464800
      9 H1          -6.6760    -5.9290    15.5330 ha         1 SDQ       0.115500
     10 H2          -5.2370    -7.4420    16.8980 ha         1 SDQ       0.113500
     11 H3          -5.9330    -9.7360    17.3440 ha         1 SDQ       0.114000
     12 H4          -8.0760   -10.5910    16.3890 ha         1 SDQ       0.113500
     13 H5          -9.5190    -9.0980    15.0790 ha         1 SDQ       0.115500
     14 H6          -9.9480    -7.0590    14.0230 h1         1 SDQ       0.063700
     15 H7          -8.5560    -6.0550    13.5820 h1         1 SDQ       0.063700
     16 H8         -10.3530    -4.4270    14.5180 hs         1 SDQ       0.208800
@<TRIPOS>BOND
     1     1     2 ar  
     2     1     6 ar  
     3     1     9 1   
     4     2     3 ar  
     5     2    10 1   
     6     3     4 ar  
     7     3    11 1   
     8     4     5 ar  
     9     4    12 1   
    10     5     6 ar  
    11     5    13 1   
    12     6     7 1   
    13     7     8 1   
    14     7    14 1   
    15     7    15 1   
    16     8    16 1   
@<TRIPOS>SUBSTRUCTURE
     1 SDQ         1 TEMP              0 ****  ****    0 ROOT
