@<TRIPOS>MOLECULE
SDR
   47    46     1     0     0
SMALL
No Charge or Current Charge


@<TRIPOS>ATOM
      1 CAR          2.4720    -2.5970    -0.7400 c          1 SDR       0.595100
      2 OAC          2.3390    -3.1150     0.3600 o          1 SDR      -0.648100
      3 CAB          2.7230    -3.4130    -2.0050 c3         1 SDR      -0.173100
      4 NAP          2.3880    -1.2380    -0.9420 ns         1 SDR      -0.445900
      5 CAW          2.1710    -0.2250     0.1140 c3         1 SDR       0.046700
      6 CAU          1.0710     0.7850    -0.3360 c          1 SDR       0.600100
      7 OAF          0.6740     0.8720    -1.4950 o          1 SDR      -0.657100
      8 CAO          3.5000     0.4920     0.4890 c3         1 SDR      -0.231400
      9 CAS          4.5280    -0.4860     1.0640 c          1 SDR       0.715000
     10 OAD          4.5010    -0.7010     2.2660 o          1 SDR      -0.751000
     11 OAG          5.3370    -0.9940     0.3030 o          1 SDR      -0.751000
     12 C           -0.1680     3.8730     1.3530 c          1 SDR       0.709000
     13 N            0.5670     1.5820     0.6730 ns         1 SDR      -0.456900
     14 CA          -0.5070     2.5960     0.5210 c3         1 SDR      -0.039300
     15 CB          -1.9020     2.0330     0.9010 c3         1 SDR      -0.065400
     16 CAA         -7.6120    -2.9300    -0.6750 c3         1 SDR      -0.086100
     17 CAI         -6.1920    -2.4490    -1.0320 c3         1 SDR      -0.077400
     18 CAJ         -5.7120    -1.2760    -0.1500 c3         1 SDR      -0.075400
     19 CAK         -4.2890    -0.7940    -0.5090 c3         1 SDR      -0.076400
     20 CAM         -2.3850     0.8610     0.0140 c3         1 SDR      -0.079400
     21 HAB          3.6350    -3.0470    -2.4920 hc         1 SDR       0.039033
     22 HABA         2.7740    -4.4910    -1.8130 hc         1 SDR       0.039033
     23 HABB         1.9530    -3.1720    -2.7470 hc         1 SDR       0.039033
     24 HNAP         2.4660    -0.9180    -1.9000 hn         1 SDR       0.317500
     25 HAW          1.7800    -0.7240     1.0110 h1         1 SDR       0.082700
     26 HAO          3.2350     1.2260     1.2590 hc         1 SDR       0.059200
     27 HAOA         3.8800     0.9430    -0.4360 hc         1 SDR       0.059200
     28 HN           0.9720     1.4620     1.5950 hn         1 SDR       0.298500
     29 HA          -0.5410     2.9090    -0.5300 h1         1 SDR       0.058700
     30 HB          -1.8880     1.7100     1.9500 hc         1 SDR       0.037200
     31 HBA         -2.6330     2.8480     0.8340 hc         1 SDR       0.037200
     32 HAA         -7.6540    -3.2770     0.3650 hc         1 SDR       0.022700
     33 HAAA        -8.3390    -2.1200    -0.8010 hc         1 SDR       0.022700
     34 HAAB        -7.9080    -3.7620    -1.3260 hc         1 SDR       0.022700
     35 HAI         -5.4950    -3.2900    -0.9310 hc         1 SDR       0.035700
     36 HAIA        -6.1740    -2.1440    -2.0860 hc         1 SDR       0.035700
     37 HAJ         -6.4120    -0.4380    -0.2530 hc         1 SDR       0.030700
     38 HAJA        -5.7330    -1.5850     0.9020 hc         1 SDR       0.030700
     39 HAK         -3.5880    -1.6320    -0.4060 hc         1 SDR       0.037700
     40 HAKA        -4.2670    -0.4850    -1.5610 hc         1 SDR       0.037700
     41 HAL         -4.5090     1.2170     0.2710 hc         1 SDR       0.026200
     42 HALA        -3.8290     0.0710     1.4260 hc         1 SDR       0.026200
     43 HAM         -2.3640     1.1730    -1.0370 hc         1 SDR       0.042700
     44 HAMA        -1.6920     0.0170     0.1140 hc         1 SDR       0.042700
     45 O            0.1600     3.7380     2.5240 o          1 SDR      -0.731000
     46 OXT         -0.1570     4.9510     0.7760 o          1 SDR      -0.731000
     47 CAL         -3.8080     0.3790     0.3730 c3         1 SDR      -0.073400
@<TRIPOS>BOND
     1     1     2 2   
     2     1     3 1   
     3     1     4 1   
     4     3    21 1   
     5     3    22 1   
     6     3    23 1   
     7     4     5 1   
     8     4    24 1   
     9     5     6 1   
    10     5     8 1   
    11     5    25 1   
    12     6     7 2   
    13     6    13 1   
    14     8     9 1   
    15     8    26 1   
    16     8    27 1   
    17     9    10 1   
    18     9    11 1   
    19    12    14 1   
    20    12    45 1   
    21    12    46 1   
    22    13    14 1   
    23    13    28 1   
    24    14    15 1   
    25    14    29 1   
    26    15    20 1   
    27    15    30 1   
    28    15    31 1   
    29    16    17 1   
    30    16    32 1   
    31    16    33 1   
    32    16    34 1   
    33    17    18 1   
    34    17    35 1   
    35    17    36 1   
    36    18    19 1   
    37    18    37 1   
    38    18    38 1   
    39    19    39 1   
    40    19    40 1   
    41    19    47 1   
    42    20    43 1   
    43    20    44 1   
    44    20    47 1   
    45    41    47 1   
    46    42    47 1   
@<TRIPOS>SUBSTRUCTURE
     1 SDR         1 TEMP              0 ****  ****    0 ROOT
