@<TRIPOS>MOLECULE
SDR
   47    46     1     0     0
SMALL
abcg2


@<TRIPOS>ATOM
      1 CAR          2.5430    -1.9640    -1.5400 c          1 SDR       0.595100
      2 OAC          1.3530    -2.2050    -1.3800 o          1 SDR      -0.648100
      3 CAB          3.3870    -2.7100    -2.5420 c3         1 SDR      -0.173100
      4 NAP          3.1890    -1.0460    -0.8050 ns         1 SDR      -0.445900
      5 CAW          2.5160    -0.2500     0.1890 c3         1 SDR       0.046700
      6 CAU          1.4990     0.6850    -0.4600 c          1 SDR       0.600100
      7 OAF          1.6970     1.1870    -1.5580 o          1 SDR      -0.657100
      8 CAO          3.5380     0.5790     0.9590 c3         1 SDR      -0.231400
      9 CAS          4.4880    -0.2610     1.8390 c          1 SDR       0.715000
     10 OAD          4.0140    -1.2900     2.3590 o          1 SDR      -0.751000
     11 OAG          5.6430     0.1850     1.9820 o          1 SDR      -0.751000
     12 C            0.0380     3.3630     0.6090 c          1 SDR       0.709000
     13 N            0.4130     0.9230     0.2860 ns         1 SDR      -0.456900
     14 CA          -0.4890     2.0200     0.0330 c3         1 SDR      -0.039300
     15 CB          -1.8850     1.6890     0.5570 c3         1 SDR      -0.065400
     16 CAA         -8.1670    -2.5570    -0.1700 c3         1 SDR      -0.086100
     17 CAI         -6.6830    -2.4340    -0.4870 c3         1 SDR      -0.077400
     18 CAJ         -6.0610    -1.1580     0.0670 c3         1 SDR      -0.075400
     19 CAK         -4.5780    -1.0180    -0.2530 c3         1 SDR      -0.076400
     20 CAM         -2.4940     0.4350    -0.0590 c3         1 SDR      -0.079400
     21 HAB          3.5980    -3.7100    -2.1590 hc         1 SDR       0.039033
     22 HABA         2.8370    -2.8270    -3.4750 hc         1 SDR       0.039033
     23 HABB         4.3370    -2.2240    -2.7550 hc         1 SDR       0.039033
     24 HNAP         4.1500    -0.8340    -1.0190 hn         1 SDR       0.317500
     25 HAW          2.0080    -0.9120     0.8950 h1         1 SDR       0.082700
     26 HAO          2.9960     1.2750     1.6080 hc         1 SDR       0.059200
     27 HAOA         4.1070     1.2030     0.2650 hc         1 SDR       0.059200
     28 HN           0.3990     0.5340     1.2160 hn         1 SDR       0.298500
     29 HA          -0.5610     2.1370    -1.0520 h1         1 SDR       0.058700
     30 HB          -1.8580     1.5850     1.6490 hc         1 SDR       0.037200
     31 HBA         -2.5280     2.5470     0.3510 hc         1 SDR       0.037200
     32 HAA         -8.3400    -2.5680     0.9080 hc         1 SDR       0.022700
     33 HAAA        -8.7300    -1.7180    -0.5830 hc         1 SDR       0.022700
     34 HAAB        -8.5910    -3.4740    -0.5820 hc         1 SDR       0.022700
     35 HAI         -6.1500    -3.3010    -0.0830 hc         1 SDR       0.035700
     36 HAIA        -6.5360    -2.4670    -1.5710 hc         1 SDR       0.035700
     37 HAJ         -6.6000    -0.2910    -0.3310 hc         1 SDR       0.030700
     38 HAJA        -6.2030    -1.1290     1.1540 hc         1 SDR       0.030700
     39 HAK         -4.0380    -1.8900     0.1330 hc         1 SDR       0.037700
     40 HAKA        -4.4400    -1.0330    -1.3400 hc         1 SDR       0.037700
     41 HAL         -4.5290     1.1210    -0.0340 hc         1 SDR       0.026200
     42 HALA        -4.0610     0.2460     1.4070 hc         1 SDR       0.026200
     43 HAM         -2.4040     0.4880    -1.1500 hc         1 SDR       0.042700
     44 HAMA        -1.9250    -0.4480     0.2480 hc         1 SDR       0.042700
     45 O            1.1240     3.3480     1.2130 o          1 SDR      -0.731000
     46 OXT         -0.6940     4.3510     0.4000 o          1 SDR      -0.731000
     47 CAL         -3.9600     0.2530     0.3160 c3         1 SDR      -0.073400
@<TRIPOS>BOND
     1     1     2 2   
     2     1     3 1   
     3     1     4 1   
     4     3    21 1   
     5     3    22 1   
     6     3    23 1   
     7     4     5 1   
     8     4    24 1   
     9     5     6 1   
    10     5     8 1   
    11     5    25 1   
    12     6     7 2   
    13     6    13 1   
    14     8     9 1   
    15     8    26 1   
    16     8    27 1   
    17     9    10 1   
    18     9    11 1   
    19    12    14 1   
    20    12    45 1   
    21    12    46 1   
    22    13    14 1   
    23    13    28 1   
    24    14    15 1   
    25    14    29 1   
    26    15    20 1   
    27    15    30 1   
    28    15    31 1   
    29    16    17 1   
    30    16    32 1   
    31    16    33 1   
    32    16    34 1   
    33    17    18 1   
    34    17    35 1   
    35    17    36 1   
    36    18    19 1   
    37    18    37 1   
    38    18    38 1   
    39    19    39 1   
    40    19    40 1   
    41    19    47 1   
    42    20    43 1   
    43    20    44 1   
    44    20    47 1   
    45    41    47 1   
    46    42    47 1   
@<TRIPOS>SUBSTRUCTURE
     1 SDR         1 TEMP              0 ****  ****    0 ROOT
