@<TRIPOS>MOLECULE
SDS
   42    41     1     0     0
SMALL
bcc


@<TRIPOS>ATOM
      1 S           -0.0750    -0.0860    -6.2300 s6         1 SDS       1.500300
      2 O1S         -1.2620     0.1190    -7.0570 o          1 SDS      -0.712867
      3 O2S         -0.7050     0.1280    -4.7310 os         1 SDS      -0.580500
      4 O3S          0.4490    -1.4550    -6.2480 o          1 SDS      -0.712867
      5 O4           0.9610     0.9410    -6.3770 o          1 SDS      -0.712867
      6 C1           0.2000     0.1110    -3.6290 c3         1 SDS       0.193400
      7 C2          -0.2880    -0.0410    10.3450 c3         1 SDS      -0.088100
      8 C3           0.5400     0.0210     9.0690 c3         1 SDS      -0.075400
      9 C4          -0.3150    -0.0300     7.8080 c3         1 SDS      -0.075400
     10 C5           0.4980     0.0250     6.5210 c3         1 SDS      -0.074400
     11 C6          -0.3640    -0.0330     5.2660 c3         1 SDS      -0.074400
     12 C7           0.4410     0.0380     3.9740 c3         1 SDS      -0.074400
     13 C8          -0.4280    -0.0220     2.7240 c3         1 SDS      -0.074400
     14 C9           0.3700     0.0510     1.4280 c3         1 SDS      -0.075400
     15 C10         -0.5080    -0.0040     0.1830 c3         1 SDS      -0.074400
     16 C11          0.2840     0.0700    -1.1150 c3         1 SDS      -0.077400
     17 C12         -0.6100     0.0440    -2.3500 c3         1 SDS      -0.082400
     18 H1C1         0.8220     1.0120    -3.6350 h1         1 SDS       0.027200
     19 H1C2         0.8690    -0.7550    -3.6900 h1         1 SDS       0.027200
     20 H2C1         0.3390    -0.0050    11.2360 hc         1 SDS       0.029367
     21 H2C2        -0.9880     0.7940    10.4000 hc         1 SDS       0.029367
     22 H2C3        -0.8720    -0.9630    10.3890 hc         1 SDS       0.029367
     23 H3C1         1.1390     0.9380     9.0620 hc         1 SDS       0.035700
     24 H3C2         1.2560    -0.8070     9.0540 hc         1 SDS       0.035700
     25 H4C1        -0.9180    -0.9460     7.8180 hc         1 SDS       0.036700
     26 H4C2        -1.0290     0.8010     7.8230 hc         1 SDS       0.036700
     27 H5C1         1.0970     0.9430     6.5080 hc         1 SDS       0.035700
     28 H5C2         1.2140    -0.8040     6.5070 hc         1 SDS       0.035700
     29 H6C1        -0.9540    -0.9570     5.2740 hc         1 SDS       0.035700
     30 H6C2        -1.0890     0.7880     5.2860 hc         1 SDS       0.035700
     31 H7C1         1.0300     0.9620     3.9630 hc         1 SDS       0.035700
     32 H7C2         1.1660    -0.7830     3.9520 hc         1 SDS       0.035700
     33 H8C1        -1.0170    -0.9460     2.7350 hc         1 SDS       0.035700
     34 H8C2        -1.1540     0.7990     2.7490 hc         1 SDS       0.035700
     35 H9C1         0.9600     0.9750     1.4150 hc         1 SDS       0.035200
     36 H9C2         1.0940    -0.7710     1.3990 hc         1 SDS       0.035200
     37 H101        -1.0980    -0.9270     0.1960 hc         1 SDS       0.035200
     38 H102        -1.2310     0.8180     0.2150 hc         1 SDS       0.035200
     39 H111         0.8880     0.9850    -1.1210 hc         1 SDS       0.033700
     40 H112         0.9930    -0.7630    -1.1570 hc         1 SDS       0.033700
     41 H121        -1.2130    -0.8690    -2.3470 hc         1 SDS       0.045200
     42 H122        -1.3060     0.8870    -2.3130 hc         1 SDS       0.045200
@<TRIPOS>BOND
     1     1     2 1   
     2     1     3 1   
     3     1     4 1   
     4     1     5 1   
     5     3     6 1   
     6     6    17 1   
     7     6    18 1   
     8     6    19 1   
     9     7     8 1   
    10     7    20 1   
    11     7    21 1   
    12     7    22 1   
    13     8     9 1   
    14     8    23 1   
    15     8    24 1   
    16     9    10 1   
    17     9    25 1   
    18     9    26 1   
    19    10    11 1   
    20    10    27 1   
    21    10    28 1   
    22    11    12 1   
    23    11    29 1   
    24    11    30 1   
    25    12    13 1   
    26    12    31 1   
    27    12    32 1   
    28    13    14 1   
    29    13    33 1   
    30    13    34 1   
    31    14    15 1   
    32    14    35 1   
    33    14    36 1   
    34    15    16 1   
    35    15    37 1   
    36    15    38 1   
    37    16    17 1   
    38    16    39 1   
    39    16    40 1   
    40    17    41 1   
    41    17    42 1   
@<TRIPOS>SUBSTRUCTURE
     1 SDS         1 TEMP              0 ****  ****    0 ROOT
