@<TRIPOS>MOLECULE
SDS
   42    41     1     0     0
SMALL
No Charge or Current Charge


@<TRIPOS>ATOM
      1 S           -0.0560     0.0190    -6.3280 s6         1 SDS       1.500300
      2 O1S         -1.2250    -0.0210    -7.2190 o          1 SDS      -0.712867
      3 O2S         -0.7110    -0.0060    -4.8220 os         1 SDS      -0.603700
      4 O3S          0.7850    -1.1860    -6.3760 o          1 SDS      -0.712867
      5 O4           0.6970     1.2810    -6.3720 o          1 SDS      -0.712867
      6 C1           0.2160     0.0250    -3.7300 c3         1 SDS       0.216600
      7 C2          -0.2530    -0.0160    10.4530 c3         1 SDS      -0.088100
      8 C3           0.5610     0.0150     9.1450 c3         1 SDS      -0.075400
      9 C4          -0.3250    -0.0130     7.8800 c3         1 SDS      -0.075400
     10 C5           0.4920     0.0180     6.5700 c3         1 SDS      -0.074400
     11 C6          -0.3940    -0.0110     5.3050 c3         1 SDS      -0.074400
     12 C7           0.4220     0.0200     3.9940 c3         1 SDS      -0.074400
     13 C8          -0.4640    -0.0090     2.7290 c3         1 SDS      -0.074400
     14 C9           0.3530     0.0220     1.4190 c3         1 SDS      -0.075400
     15 C10         -0.5330    -0.0070     0.1540 c3         1 SDS      -0.074400
     16 C11          0.2840     0.0240    -1.1570 c3         1 SDS      -0.077400
     17 C12         -0.6020    -0.0050    -2.4230 c3         1 SDS      -0.082400
     18 H1C1         0.8250     0.9390    -3.7510 h1         1 SDS       0.027200
     19 H1C2         0.8880    -0.8430    -3.7540 h1         1 SDS       0.027200
     20 H2C1         0.4170     0.0060    11.3210 hc         1 SDS       0.029367
     21 H2C2        -0.9220     0.8510    10.5140 hc         1 SDS       0.029367
     22 H2C3        -0.8600    -0.9270    10.5110 hc         1 SDS       0.029367
     23 H3C1         1.1820     0.9190     9.1340 hc         1 SDS       0.035700
     24 H3C2         1.2440    -0.8430     9.1300 hc         1 SDS       0.035700
     25 H4C1        -0.9460    -0.9180     7.8960 hc         1 SDS       0.036700
     26 H4C2        -1.0080     0.8450     7.9000 hc         1 SDS       0.036700
     27 H5C1         1.1130     0.9220     6.5540 hc         1 SDS       0.035700
     28 H5C2         1.1750    -0.8410     6.5500 hc         1 SDS       0.035700
     29 H6C1        -1.0150    -0.9150     5.3210 hc         1 SDS       0.035700
     30 H6C2        -1.0770     0.8480     5.3240 hc         1 SDS       0.035700
     31 H7C1         1.0430     0.9240     3.9780 hc         1 SDS       0.035700
     32 H7C2         1.1050    -0.8390     3.9750 hc         1 SDS       0.035700
     33 H8C1        -1.0850    -0.9130     2.7450 hc         1 SDS       0.035700
     34 H8C2        -1.1470     0.8500     2.7480 hc         1 SDS       0.035700
     35 H9C1         0.9740     0.9260     1.4030 hc         1 SDS       0.035200
     36 H9C2         1.0360    -0.8360     1.4000 hc         1 SDS       0.035200
     37 H101        -1.1540    -0.9110     0.1700 hc         1 SDS       0.035200
     38 H102        -1.2160     0.8520     0.1730 hc         1 SDS       0.035200
     39 H111         0.9050     0.9280    -1.1730 hc         1 SDS       0.033700
     40 H112         0.9670    -0.8350    -1.1760 hc         1 SDS       0.033700
     41 H121        -1.2210    -0.9110    -2.4090 hc         1 SDS       0.045200
     42 H122        -1.2830     0.8540    -2.4060 hc         1 SDS       0.045200
@<TRIPOS>BOND
     1     1     2 1   
     2     1     3 1   
     3     1     4 1   
     4     1     5 1   
     5     3     6 1   
     6     6    17 1   
     7     6    18 1   
     8     6    19 1   
     9     7     8 1   
    10     7    20 1   
    11     7    21 1   
    12     7    22 1   
    13     8     9 1   
    14     8    23 1   
    15     8    24 1   
    16     9    10 1   
    17     9    25 1   
    18     9    26 1   
    19    10    11 1   
    20    10    27 1   
    21    10    28 1   
    22    11    12 1   
    23    11    29 1   
    24    11    30 1   
    25    12    13 1   
    26    12    31 1   
    27    12    32 1   
    28    13    14 1   
    29    13    33 1   
    30    13    34 1   
    31    14    15 1   
    32    14    35 1   
    33    14    36 1   
    34    15    16 1   
    35    15    37 1   
    36    15    38 1   
    37    16    17 1   
    38    16    39 1   
    39    16    40 1   
    40    17    41 1   
    41    17    42 1   
@<TRIPOS>SUBSTRUCTURE
     1 SDS         1 TEMP              0 ****  ****    0 ROOT
