@<TRIPOS>MOLECULE
SDT
   47    49     1     0     0
SMALL
bcc


@<TRIPOS>ATOM
      1 OAD         -5.5900     1.1630    -0.9430 o          1 SDT      -0.508100
      2 CAP         -4.4190     1.2130    -0.6540 c          1 SDT       0.581100
      3 CAI         -3.4530     2.3180    -1.0500 c5         1 SDT      -0.190400
      4 CAL         -2.0730     1.8670    -0.5530 c5         1 SDT      -0.067400
      5 CAV         -2.2460     0.3550    -0.4050 c5         1 SDT      -0.056700
      6 CAW         -3.6610     0.1910     0.1680 c5         1 SDT      -0.162000
      7 CAB         -3.7970     0.6740     1.6230 c3         1 SDT      -0.081100
      8 CAN         -4.1030    -1.2570     0.0320 c6         1 SDT      -0.043400
      9 CAJ         -3.0760    -2.1810     0.7060 c6         1 SDT      -0.184400
     10 CAU         -1.1990    -0.4480     0.3730 c6         1 SDT      -0.148700
     11 CAO         -1.6510    -1.8990     0.2750 c          1 SDT       0.574100
     12 OAC         -0.9340    -2.7770    -0.1500 o          1 SDT      -0.520100
     13 CAM          0.2240    -0.2070    -0.1150 c3         1 SDT      -0.059400
     14 CAK          1.3050    -0.7590     0.8190 c3         1 SDT      -0.021100
     15 CAT          2.6860    -0.4430     0.3120 ca         1 SDT      -0.084300
     16 CAS          3.2670     0.7830     0.6250 ca         1 SDT       0.120100
     17 OAF          2.5810     1.6490     1.4070 oh         1 SDT      -0.501100
     18 CAR          4.5360     1.1210     0.1390 ca         1 SDT       0.038100
     19 OAE          5.0080     2.3380     0.5090 oh         1 SDT      -0.523100
     20 CAH          5.2170     0.2330    -0.6710 ca         1 SDT      -0.174000
     21 CAG          4.6370    -0.9890    -0.9920 ca         1 SDT      -0.131000
     22 CAQ          3.3820    -1.3410    -0.5140 ca         1 SDT      -0.060300
     23 CAA          2.7920    -2.6770    -0.8740 c3         1 SDT      -0.048800
     24 HAI         -3.4740     2.4180    -2.1380 hc         1 SDT       0.074200
     25 HAIA        -3.7800     3.2770    -0.6440 hc         1 SDT       0.074200
     26 HAL         -1.2830     2.1260    -1.2560 hc         1 SDT       0.054700
     27 HALA        -1.8190     2.3300     0.4030 hc         1 SDT       0.054700
     28 HAV         -2.2780    -0.0520    -1.4270 hc         1 SDT       0.054700
     29 HAB         -4.8410     0.6130     1.9340 hc         1 SDT       0.042367
     30 HABA        -3.2190     0.0600     2.3130 hc         1 SDT       0.042367
     31 HABB        -3.4710     1.7060     1.7640 hc         1 SDT       0.042367
     32 HAN         -5.0860    -1.4220     0.4770 hc         1 SDT       0.058200
     33 HANA        -4.1840    -1.5200    -1.0260 hc         1 SDT       0.058200
     34 HAJ         -3.1220    -2.0500     1.7920 hc         1 SDT       0.067200
     35 HAJA        -3.3090    -3.2270     0.5020 hc         1 SDT       0.067200
     36 HAU         -1.2600    -0.1530     1.4290 hc         1 SDT       0.071700
     37 HAM          0.3500    -0.6180    -1.1210 hc         1 SDT       0.050700
     38 HAMA         0.3720     0.8710    -0.2080 hc         1 SDT       0.050700
     39 HAK          1.1590    -0.3390     1.8170 hc         1 SDT       0.056200
     40 HAKA         1.1910    -1.8370     0.9240 hc         1 SDT       0.056200
     41 HOAF         3.0950     2.4550     1.5350 ho         1 SDT       0.440000
     42 HOAE         5.8780     2.4980     0.1280 ho         1 SDT       0.435000
     43 HAH          6.1980     0.4880    -1.0540 ha         1 SDT       0.131000
     44 HAG          5.1780    -1.6750    -1.6310 ha         1 SDT       0.133000
     45 HAA          1.7950    -2.5860    -1.3070 hc         1 SDT       0.047033
     46 HAAA         3.4230    -3.1940    -1.5960 hc         1 SDT       0.047033
     47 HAAB         2.6960    -3.3250    -0.0000 hc         1 SDT       0.047033
@<TRIPOS>BOND
     1     1     2 2   
     2     2     3 1   
     3     2     6 1   
     4     3     4 1   
     5     3    24 1   
     6     3    25 1   
     7     4     5 1   
     8     4    26 1   
     9     4    27 1   
    10     5     6 1   
    11     5    10 1   
    12     5    28 1   
    13     6     7 1   
    14     6     8 1   
    15     7    29 1   
    16     7    30 1   
    17     7    31 1   
    18     8     9 1   
    19     8    32 1   
    20     8    33 1   
    21     9    11 1   
    22     9    34 1   
    23     9    35 1   
    24    10    11 1   
    25    10    13 1   
    26    10    36 1   
    27    11    12 2   
    28    13    14 1   
    29    13    37 1   
    30    13    38 1   
    31    14    15 1   
    32    14    39 1   
    33    14    40 1   
    34    15    16 ar  
    35    15    22 ar  
    36    16    17 1   
    37    16    18 ar  
    38    17    41 1   
    39    18    19 1   
    40    18    20 ar  
    41    19    42 1   
    42    20    21 ar  
    43    20    43 1   
    44    21    22 ar  
    45    21    44 1   
    46    22    23 1   
    47    23    45 1   
    48    23    46 1   
    49    23    47 1   
@<TRIPOS>SUBSTRUCTURE
     1 SDT         1 TEMP              0 ****  ****    0 ROOT
