@<TRIPOS>MOLECULE
SDT
   47    49     1     0     0
SMALL
No Charge or Current Charge


@<TRIPOS>ATOM
      1 OAD         -5.4410     0.7180    -1.5720 o          1 SDT      -0.508100
      2 CAP         -4.5230     1.0760    -0.8440 c          1 SDT       0.581100
      3 CAI         -3.6420     2.3300    -1.0100 c5         1 SDT      -0.190400
      4 CAL         -2.1840     1.9150    -0.6060 c5         1 SDT      -0.067400
      5 CAV         -2.3100     0.3710    -0.4330 c5         1 SDT      -0.056700
      6 CAW         -3.7490     0.1910     0.1590 c5         1 SDT      -0.162000
      7 CAB         -3.9730     0.7530     1.6080 c3         1 SDT      -0.081100
      8 CAN         -4.1320    -1.3250     0.1520 c6         1 SDT      -0.043400
      9 CAJ         -3.0520    -2.2190     0.8440 c6         1 SDT      -0.184400
     10 CAU         -1.2330    -0.4010     0.3730 c6         1 SDT      -0.148700
     11 CAO         -1.6370    -1.9010     0.3240 c          1 SDT       0.574100
     12 OAC         -0.9790    -2.7510    -0.2640 o          1 SDT      -0.520100
     13 CAM          0.2340    -0.1370    -0.0980 c3         1 SDT      -0.059400
     14 CAK          1.3290    -0.7230     0.8260 c3         1 SDT      -0.021100
     15 CAT          2.7440    -0.4220     0.3080 ca         1 SDT      -0.084300
     16 CAS          3.3920     0.7830     0.6760 ca         1 SDT       0.120100
     17 OAF          2.7870     1.7000     1.4900 oh         1 SDT      -0.540100
     18 CAR          4.6880     1.0770     0.2070 ca         1 SDT       0.038100
     19 OAE          5.3000     2.2480     0.5740 oh         1 SDT      -0.562100
     20 CAH          5.3510     0.1750    -0.6340 ca         1 SDT      -0.156000
     21 CAG          4.7180    -1.0200    -1.0100 ca         1 SDT      -0.113000
     22 CAQ          3.4210    -1.3290    -0.5520 ca         1 SDT      -0.060300
     23 CAA          2.7840    -2.6430    -1.0010 c3         1 SDT      -0.048800
     24 HAI         -3.7400     2.7340    -2.0230 hc         1 SDT       0.074200
     25 HAIA        -3.9950     3.0840    -0.2990 hc         1 SDT       0.074200
     26 HAL         -1.4500     2.1840    -1.3740 hc         1 SDT       0.054700
     27 HALA        -1.8670     2.4030     0.3240 hc         1 SDT       0.054700
     28 HAV         -2.2680    -0.0810    -1.4340 hc         1 SDT       0.054700
     29 HAB         -5.0290     0.6710     1.8950 hc         1 SDT       0.042367
     30 HABA        -3.3960     0.2140     2.3670 hc         1 SDT       0.042367
     31 HABB        -3.7030     1.8100     1.7060 hc         1 SDT       0.042367
     32 HAN         -5.1140    -1.4800     0.6210 hc         1 SDT       0.058200
     33 HANA        -4.2420    -1.6640    -0.8890 hc         1 SDT       0.058200
     34 HAJ         -3.0690    -1.9610     1.9090 hc         1 SDT       0.067200
     35 HAJA        -3.2730    -3.2870     0.7200 hc         1 SDT       0.067200
     36 HAU         -1.3430    -0.0640     1.4110 hc         1 SDT       0.071700
     37 HAM          0.3760    -0.5200    -1.1150 hc         1 SDT       0.050700
     38 HAMA         0.4070     0.9440    -0.1610 hc         1 SDT       0.050700
     39 HAK          1.1960    -0.3110     1.8330 hc         1 SDT       0.056200
     40 HAKA         1.1800    -1.8000     0.9470 hc         1 SDT       0.056200
     41 HOAF         3.4370     2.4320     1.5870 ho         1 SDT       0.479000
     42 HOAE         6.1910     2.2840     0.1590 ho         1 SDT       0.474000
     43 HAH          6.3520     0.3910    -1.0010 ha         1 SDT       0.113000
     44 HAG          5.2430    -1.7120    -1.6660 ha         1 SDT       0.115000
     45 HAA          1.7990    -2.4770    -1.4520 hc         1 SDT       0.047033
     46 HAAA         3.3960    -3.1580    -1.7510 hc         1 SDT       0.047033
     47 HAAB         2.6600    -3.3300    -0.1560 hc         1 SDT       0.047033
@<TRIPOS>BOND
     1     1     2 2   
     2     2     3 1   
     3     2     6 1   
     4     3     4 1   
     5     3    24 1   
     6     3    25 1   
     7     4     5 1   
     8     4    26 1   
     9     4    27 1   
    10     5     6 1   
    11     5    10 1   
    12     5    28 1   
    13     6     7 1   
    14     6     8 1   
    15     7    29 1   
    16     7    30 1   
    17     7    31 1   
    18     8     9 1   
    19     8    32 1   
    20     8    33 1   
    21     9    11 1   
    22     9    34 1   
    23     9    35 1   
    24    10    11 1   
    25    10    13 1   
    26    10    36 1   
    27    11    12 2   
    28    13    14 1   
    29    13    37 1   
    30    13    38 1   
    31    14    15 1   
    32    14    39 1   
    33    14    40 1   
    34    15    16 ar  
    35    15    22 ar  
    36    16    17 1   
    37    16    18 ar  
    38    17    41 1   
    39    18    19 1   
    40    18    20 ar  
    41    19    42 1   
    42    20    21 ar  
    43    20    43 1   
    44    21    22 ar  
    45    21    44 1   
    46    22    23 1   
    47    23    45 1   
    48    23    46 1   
    49    23    47 1   
@<TRIPOS>SUBSTRUCTURE
     1 SDT         1 TEMP              0 ****  ****    0 ROOT
