@<TRIPOS>MOLECULE
SDV
   45    49     1     0     0
SMALL
No Charge or Current Charge


@<TRIPOS>ATOM
      1 C            6.6470     0.6440    -1.2970 ca         1 SDV      -0.099000
      2 F           -4.7490     1.6280     1.6860 f          1 SDV      -0.154000
      3 O            3.5720    -1.2810    -1.1690 os         1 SDV      -0.079100
      4 C1           7.0560     1.6650    -0.4130 ca         1 SDV      -0.077000
      5 N            4.8460    -1.0040    -1.8340 nc         1 SDV      -0.017000
      6 N1           1.3230    -1.3790     0.4640 ns         1 SDV      -0.483900
      7 O1           2.1330     0.2820     1.7920 o          1 SDV      -0.582100
      8 C2           6.2320     2.0410     0.6720 ca         1 SDV      -0.126000
      9 N2          -2.8350     0.3810     0.0500 na         1 SDV       0.222000
     10 C3           4.9950     1.3980     0.8790 ca         1 SDV      -0.041000
     11 N3          -1.9560     1.4390     0.0640 nc         1 SDV      -0.496800
     12 C4           4.6230     0.3870    -0.0220 ca         1 SDV      -0.110000
     13 C5           5.4120     0.0140    -1.0760 ca         1 SDV      -0.068000
     14 C6           3.4530    -0.4370    -0.0820 cc         1 SDV      -0.028100
     15 C7           2.2730    -0.4480     0.8190 c          1 SDV       0.640300
     16 C8           0.0260    -1.5690     1.1120 c6         1 SDV       0.201000
     17 C9          -0.5110    -2.9990     0.8090 c6         1 SDV      -0.088400
     18 C10         -1.9960    -3.1760     1.2420 c6         1 SDV      -0.067400
     19 C11         -2.9380    -2.2150     0.4660 c6         1 SDV      -0.011100
     20 C12         -2.3030    -0.8510     0.3910 cc         1 SDV      -0.116300
     21 C13         -1.0020    -0.5530     0.6600 cd         1 SDV      -0.233300
     22 C14         -0.8400     0.8440     0.4570 cd         1 SDV       0.272900
     23 C15         -4.1470     0.5610    -0.3780 ca         1 SDV      -0.035200
     24 C16         -4.5420     0.0970    -1.6500 ca         1 SDV      -0.083000
     25 C17         -5.8680     0.2660    -2.0850 ca         1 SDV      -0.122000
     26 C18         -6.8090     0.8980    -1.2520 ca         1 SDV      -0.076000
     27 C19         -6.4210     1.3590     0.0180 ca         1 SDV      -0.151000
     28 C20         -5.0960     1.1900     0.4530 ca         1 SDV       0.198000
     29 H1           1.5340    -1.9370    -0.3530 hn         1 SDV       0.330500
     30 H            7.2780     0.3510    -2.1330 ha         1 SDV       0.135000
     31 HA           8.0100     2.1650    -0.5670 ha         1 SDV       0.117000
     32 H2           6.5530     2.8290     1.3500 ha         1 SDV       0.119000
     33 H3           4.3540     1.6810     1.7110 ha         1 SDV       0.145000
     34 H8           0.1630    -1.4740     2.2010 h1         1 SDV       0.086700
     35 H91C        -0.4280    -3.2080    -0.2670 hc         1 SDV       0.050200
     36 H92C         0.1170    -3.7430     1.3190 hc         1 SDV       0.050200
     37 H101        -2.3150    -4.2150     1.0850 hc         1 SDV       0.051200
     38 H102        -2.0840    -2.9840     2.3210 hc         1 SDV       0.051200
     39 H111        -3.1090    -2.6060    -0.5460 hc         1 SDV       0.057200
     40 H112        -3.9210    -2.1730     0.9560 hc         1 SDV       0.057200
     41 H14          0.0560     1.4390     0.5770 h4         1 SDV       0.048100
     42 H16         -3.8190    -0.3930    -2.2990 ha         1 SDV       0.128000
     43 H19         -7.1460     1.8440     0.6670 ha         1 SDV       0.138000
     44 H17         -6.1680    -0.0930    -3.0670 ha         1 SDV       0.124000
     45 H18         -7.8350     1.0270    -1.5900 ha         1 SDV       0.122000
@<TRIPOS>BOND
     1     1     4 ar  
     2     1    13 ar  
     3     1    30 1   
     4     2    28 1   
     5     3     5 1   
     6     3    14 1   
     7     4     8 ar  
     8     4    31 1   
     9     5    13 2   
    10     6    15 1   
    11     6    16 1   
    12     6    29 1   
    13     7    15 2   
    14     8    10 ar  
    15     8    32 1   
    16     9    11 1   
    17     9    20 1   
    18     9    23 1   
    19    10    12 ar  
    20    10    33 1   
    21    11    22 2   
    22    12    13 ar  
    23    12    14 2   
    24    14    15 1   
    25    16    17 1   
    26    16    21 1   
    27    16    34 1   
    28    17    18 1   
    29    17    35 1   
    30    17    36 1   
    31    18    19 1   
    32    18    37 1   
    33    18    38 1   
    34    19    20 1   
    35    19    39 1   
    36    19    40 1   
    37    20    21 2   
    38    21    22 1   
    39    22    41 1   
    40    23    24 ar  
    41    23    28 ar  
    42    24    25 ar  
    43    24    42 1   
    44    25    26 ar  
    45    25    44 1   
    46    26    27 ar  
    47    26    45 1   
    48    27    28 ar  
    49    27    43 1   
@<TRIPOS>SUBSTRUCTURE
     1 SDV         1 TEMP              0 ****  ****    0 ROOT
