@<TRIPOS>MOLECULE
SDV
   45    49     1     0     0
SMALL
abcg2


@<TRIPOS>ATOM
      1 C            6.7270     0.6120    -1.1950 ca         1 SDV      -0.099000
      2 F           -4.5650     1.9420     1.3910 f          1 SDV      -0.154000
      3 O            3.6630    -1.1110    -1.1580 os         1 SDV      -0.079100
      4 C1           7.1300     1.5280    -0.2760 ca         1 SDV      -0.077000
      5 N            4.8510    -0.8750    -1.7560 nc         1 SDV      -0.017000
      6 N1           1.3270    -1.2980     0.2830 ns         1 SDV      -0.483900
      7 O1           2.2030     0.1600     1.7860 o          1 SDV      -0.582100
      8 C2           6.3160     1.8990     0.8440 ca         1 SDV      -0.126000
      9 N2          -2.9050     0.3250    -0.0810 na         1 SDV       0.222000
     10 C3           5.0890     1.3520     1.0540 ca         1 SDV      -0.041000
     11 N3          -2.0790     1.3810    -0.0620 nc         1 SDV      -0.496800
     12 C4           4.6350     0.3890     0.1150 ca         1 SDV      -0.110000
     13 C5           5.4460     0.0240    -1.0020 ca         1 SDV      -0.068000
     14 C6           3.5140    -0.3800    -0.0590 cc         1 SDV      -0.028100
     15 C7           2.2810    -0.4850     0.7500 c          1 SDV       0.640300
     16 C8           0.0560    -1.4870     0.9590 c6         1 SDV       0.201000
     17 C9          -0.4660    -2.9020     0.6990 c6         1 SDV      -0.088400
     18 C10         -1.9080    -3.0650     1.1710 c6         1 SDV      -0.067400
     19 C11         -2.8740    -2.1830     0.3770 c6         1 SDV      -0.011100
     20 C12         -2.2800    -0.8250     0.2660 cc         1 SDV      -0.116300
     21 C13         -0.9730    -0.4900     0.5220 cd         1 SDV      -0.233300
     22 C14         -0.9110     0.9000     0.3040 cd         1 SDV       0.272900
     23 C15         -4.2610     0.4870    -0.4260 ca         1 SDV      -0.035200
     24 C16         -4.8050    -0.1830    -1.5130 ca         1 SDV      -0.083000
     25 C17         -6.1460    -0.0280    -1.8300 ca         1 SDV      -0.122000
     26 C18         -6.9440     0.8150    -1.0690 ca         1 SDV      -0.076000
     27 C19         -6.4120     1.4960     0.0170 ca         1 SDV      -0.151000
     28 C20         -5.0800     1.3160     0.3300 ca         1 SDV       0.198000
     29 H1           1.4310    -1.7220    -0.6280 hn         1 SDV       0.330500
     30 H            7.3450     0.3340    -2.0380 ha         1 SDV       0.135000
     31 HA           8.0980     1.9990    -0.3840 ha         1 SDV       0.117000
     32 H2           6.7000     2.6370     1.5340 ha         1 SDV       0.119000
     33 H3           4.4800     1.6380     1.8990 ha         1 SDV       0.145000
     34 H8           0.2450    -1.3750     2.0300 h1         1 SDV       0.086700
     35 H91C        -0.4110    -3.1170    -0.3740 hc         1 SDV       0.050200
     36 H92C         0.1810    -3.6230     1.2030 hc         1 SDV       0.050200
     37 H101        -2.2090    -4.1090     1.0770 hc         1 SDV       0.051200
     38 H102        -1.9760    -2.8140     2.2330 hc         1 SDV       0.051200
     39 H111        -3.0380    -2.6090    -0.6170 hc         1 SDV       0.057200
     40 H112        -3.8520    -2.1470     0.8630 hc         1 SDV       0.057200
     41 H14         -0.0620     1.5610     0.3940 h4         1 SDV       0.048100
     42 H16         -4.1690    -0.8200    -2.1140 ha         1 SDV       0.128000
     43 H19         -7.0240     2.1520     0.6210 ha         1 SDV       0.138000
     44 H17         -6.5620    -0.5550    -2.6780 ha         1 SDV       0.124000
     45 H18         -7.9880     0.9470    -1.3180 ha         1 SDV       0.122000
@<TRIPOS>BOND
     1     1     4 ar  
     2     1    13 ar  
     3     1    30 1   
     4     2    28 1   
     5     3     5 1   
     6     3    14 1   
     7     4     8 ar  
     8     4    31 1   
     9     5    13 2   
    10     6    15 1   
    11     6    16 1   
    12     6    29 1   
    13     7    15 2   
    14     8    10 ar  
    15     8    32 1   
    16     9    11 1   
    17     9    20 1   
    18     9    23 1   
    19    10    12 ar  
    20    10    33 1   
    21    11    22 2   
    22    12    13 ar  
    23    12    14 2   
    24    14    15 1   
    25    16    17 1   
    26    16    21 1   
    27    16    34 1   
    28    17    18 1   
    29    17    35 1   
    30    17    36 1   
    31    18    19 1   
    32    18    37 1   
    33    18    38 1   
    34    19    20 1   
    35    19    39 1   
    36    19    40 1   
    37    20    21 2   
    38    21    22 1   
    39    22    41 1   
    40    23    24 ar  
    41    23    28 ar  
    42    24    25 ar  
    43    24    42 1   
    44    25    26 ar  
    45    25    44 1   
    46    26    27 ar  
    47    26    45 1   
    48    27    28 ar  
    49    27    43 1   
@<TRIPOS>SUBSTRUCTURE
     1 SDV         1 TEMP              0 ****  ****    0 ROOT
