@<TRIPOS>MOLECULE
SDW
   35    38     1     0     0
SMALL
abcg2


@<TRIPOS>ATOM
      1 C1          21.9290    17.2880   -13.6530 ca         1 SDW      -0.051500
      2 C2          21.9150    17.3530   -15.0340 ca         1 SDW      -0.154500
      3 C3          19.5270    17.3160   -13.6460 ca         1 SDW      -0.051500
      4 C5          20.7120    17.3990   -15.7470 ca         1 SDW       0.324000
      5 C6          19.8830    17.5700   -18.1010 ca         1 SDW       0.412900
      6 C7          17.6980    17.7890   -18.7500 ca         1 SDW       0.221300
      7 C8          16.2900    17.8880   -18.3210 cx         1 SDW      -0.192000
      8 C11         19.2400    17.7360   -20.4130 ca         1 SDW       0.056000
      9 C10         15.8030    17.0860   -17.1400 cx         1 SDW      -0.107400
     10 C9          15.9350    18.5610   -17.0200 cx         1 SDW      -0.107400
     11 C12         19.5440    17.7760   -21.7900 ca         1 SDW      -0.095000
     12 C15         21.6170    17.4940   -19.9480 ca         1 SDW      -0.076000
     13 C16         20.2920    17.5960   -19.4840 ca         1 SDW      -0.175000
     14 C           20.7270    17.2700   -12.9590 ca         1 SDW       0.166000
     15 C4          19.5120    17.3810   -15.0340 ca         1 SDW      -0.154500
     16 N           20.8260    17.4540   -17.1350 nu         1 SDW      -0.931900
     17 C14         21.8880    17.5350   -21.2920 ca         1 SDW      -0.121000
     18 C13         20.8420    17.6780   -22.2180 ca         1 SDW      -0.082000
     19 N2          17.9400    17.8340   -20.0320 nb         1 SDW      -0.200000
     20 N1          18.6190    17.6600   -17.7740 nb         1 SDW      -0.282000
     21 H1          22.8790    17.2550   -13.1370 ha         1 SDW       0.127500
     22 H2          22.8590    17.3670   -15.5650 ha         1 SDW       0.133500
     23 H3          18.5820    17.3010   -13.1200 ha         1 SDW       0.127500
     24 H4          15.5950    18.0150   -19.1420 hc         1 SDW       0.102700
     25 H5          14.8130    16.6570   -17.2170 hc         1 SDW       0.077700
     26 H6          16.5270    16.4650   -16.6290 hc         1 SDW       0.077700
     27 H7          16.7500    18.9520   -16.4250 hc         1 SDW       0.077700
     28 H8          15.0370    19.1640   -17.0120 hc         1 SDW       0.077700
     29 H9          18.7280    17.8840   -22.4920 ha         1 SDW       0.136000
     30 H10         22.4500    17.3780   -19.2660 ha         1 SDW       0.104000
     31 H11         18.5670    17.4160   -15.5480 ha         1 SDW       0.133500
     32 H12         21.7800    17.4200   -17.4550 hn         1 SDW       0.499000
     33 H13         22.9090    17.4550   -21.6390 ha         1 SDW       0.118000
     34 H14         21.0650    17.7100   -23.2770 ha         1 SDW       0.119000
     35 I           20.7330    17.1740   -10.8590 i          1 SDW      -0.313000
@<TRIPOS>BOND
     1     1     2 ar  
     2     1    14 ar  
     3     1    21 1   
     4     2     4 ar  
     5     2    22 1   
     6     3    14 ar  
     7     3    15 ar  
     8     3    23 1   
     9     4    15 ar  
    10     4    16 1   
    11     5    13 ar  
    12     5    16 1   
    13     5    20 ar  
    14     6     7 1   
    15     6    19 ar  
    16     6    20 ar  
    17     7     9 1   
    18     7    10 1   
    19     7    24 1   
    20     8    11 ar  
    21     8    13 ar  
    22     8    19 ar  
    23     9    10 1   
    24     9    25 1   
    25     9    26 1   
    26    10    27 1   
    27    10    28 1   
    28    11    18 ar  
    29    11    29 1   
    30    12    13 ar  
    31    12    17 ar  
    32    12    30 1   
    33    14    35 1   
    34    15    31 1   
    35    16    32 1   
    36    17    18 ar  
    37    17    33 1   
    38    18    34 1   
@<TRIPOS>SUBSTRUCTURE
     1 SDW         1 TEMP              0 ****  ****    0 ROOT
