@<TRIPOS>MOLECULE
SDW
   35    38     1     0     0
SMALL
No Charge or Current Charge


@<TRIPOS>ATOM
      1 C1          22.1140    18.0210   -13.5440 ca         1 SDW      -0.051500
      2 C2          22.0720    18.0770   -14.9510 ca         1 SDW      -0.154500
      3 C3          19.9190    16.9760   -13.5260 ca         1 SDW      -0.051500
      4 C5          20.9530    17.5980   -15.6520 ca         1 SDW       0.324000
      5 C6          19.9610    17.7210   -18.0220 ca         1 SDW       0.412900
      6 C7          17.7670    18.1360   -18.5390 ca         1 SDW       0.221300
      7 C8          16.3880    18.4880   -18.0620 cx         1 SDW      -0.192000
      8 C11         19.1610    17.6370   -20.3060 ca         1 SDW       0.056000
      9 C10         15.1940    17.6030   -18.3540 cx         1 SDW      -0.107400
     10 C9          15.7100    17.7270   -16.9410 cx         1 SDW      -0.107400
     11 C12         19.3920    17.4330   -21.6790 ca         1 SDW      -0.095000
     12 C15         21.5290    17.1730   -19.8740 ca         1 SDW      -0.076000
     13 C16         20.2400    17.5090   -19.3940 ca         1 SDW      -0.175000
     14 C           21.0340    17.4730   -12.8330 ca         1 SDW       0.166000
     15 C4          19.8810    17.0340   -14.9320 ca         1 SDW      -0.154500
     16 N           20.9590    17.6610   -17.0480 nu         1 SDW      -0.931900
     17 C14         21.7400    16.9730   -21.2480 ca         1 SDW      -0.121000
     18 C13         20.6740    17.1040   -22.1500 ca         1 SDW      -0.082000
     19 N2          17.9260    17.9500   -19.8640 nb         1 SDW      -0.200000
     20 N1          18.7280    18.0450   -17.6020 nb         1 SDW      -0.282000
     21 H1          22.9790    18.4000   -13.0070 ha         1 SDW       0.127500
     22 H2          22.9120    18.5040   -15.4920 ha         1 SDW       0.133500
     23 H3          19.0890    16.5410   -12.9740 ha         1 SDW       0.127500
     24 H4          16.2150    19.5610   -18.0920 hc         1 SDW       0.102700
     25 H5          14.2500    18.0870   -18.5940 hc         1 SDW       0.077700
     26 H6          15.3670    16.6630   -18.8730 hc         1 SDW       0.077700
     27 H7          16.2270    16.8690   -16.5170 hc         1 SDW       0.077700
     28 H8          15.1140    18.2950   -16.2300 hc         1 SDW       0.077700
     29 H9          18.5700    17.5300   -22.3850 ha         1 SDW       0.136000
     30 H10         22.3710    17.0570   -19.1970 ha         1 SDW       0.104000
     31 H11         19.0220    16.6240   -15.4530 ha         1 SDW       0.133500
     32 H12         21.8910    17.7610   -17.4420 hn         1 SDW       0.499000
     33 H13         22.7310    16.7150   -21.6130 ha         1 SDW       0.118000
     34 H14         20.8390    16.9480   -23.2140 ha         1 SDW       0.119000
     35 I           21.0950    17.3820   -10.6710 i          1 SDW      -0.313000
@<TRIPOS>BOND
     1     1     2 ar  
     2     1    14 ar  
     3     1    21 1   
     4     2     4 ar  
     5     2    22 1   
     6     3    14 ar  
     7     3    15 ar  
     8     3    23 1   
     9     4    15 ar  
    10     4    16 1   
    11     5    13 ar  
    12     5    16 1   
    13     5    20 ar  
    14     6     7 1   
    15     6    19 ar  
    16     6    20 ar  
    17     7     9 1   
    18     7    10 1   
    19     7    24 1   
    20     8    11 ar  
    21     8    13 ar  
    22     8    19 ar  
    23     9    10 1   
    24     9    25 1   
    25     9    26 1   
    26    10    27 1   
    27    10    28 1   
    28    11    18 ar  
    29    11    29 1   
    30    12    13 ar  
    31    12    17 ar  
    32    12    30 1   
    33    14    35 1   
    34    15    31 1   
    35    16    32 1   
    36    17    18 ar  
    37    17    33 1   
    38    18    34 1   
@<TRIPOS>SUBSTRUCTURE
     1 SDW         1 TEMP              0 ****  ****    0 ROOT
