@<TRIPOS>MOLECULE
SDY
   24    24     1     0     0
SMALL
No Charge or Current Charge


@<TRIPOS>ATOM
      1 C1          20.6050    -8.7510    -1.6650 c6         1 SDY       0.397300
      2 O1          21.5660    -9.7700    -1.4320 oh         1 SDY      -0.671000
      3 C2          19.1500    -9.3140    -1.4890 c6         1 SDY       0.169300
      4 O2          18.9860    -9.9030    -0.1750 oh         1 SDY      -0.679000
      5 C3          18.1520    -8.1160    -1.6620 c6         1 SDY       0.131300
      6 O3          16.7820    -8.5350    -1.5050 oh         1 SDY      -0.708000
      7 C4          18.4890    -6.9900    -0.6300 c6         1 SDY       0.108300
      8 O4          18.2230    -7.4830     0.7080 oh         1 SDY      -0.685000
      9 C5          19.9890    -6.5770    -0.8260 c6         1 SDY       0.156300
     10 O5          20.8570    -7.7340    -0.6830 os         1 SDY      -0.451000
     11 C6          20.4570    -5.4640     0.1690 c3         1 SDY       0.168600
     12 O6          21.8190    -5.0430    -0.0490 oh         1 SDY      -0.708000
     13 H1          20.7380    -8.3370    -2.6750 h2         1 SDY       0.006700
     14 H2          18.9600   -10.0600    -2.2750 h1         1 SDY       0.050700
     15 H3          18.2890    -7.7060    -2.6740 h1         1 SDY       0.035700
     16 H4          17.8530    -6.1170    -0.8420 h1         1 SDY       0.026700
     17 HO4         18.0420    -6.7000     1.2820 ho         1 SDY       0.500000
     18 H5          20.1100    -6.1770    -1.8440 h1         1 SDY       0.041700
     19 H61         19.7810    -4.6050     0.0630 h1         1 SDY       0.028700
     20 H62         20.3450    -5.8440     1.1930 h1         1 SDY       0.028700
     21 HO6         22.0430    -4.4090     0.6710 ho         1 SDY       0.506000
     22 HO3         16.6270    -8.5470    -0.5310 ho         1 SDY       0.511000
     23 HO1         21.2750   -10.1570    -0.5760 ho         1 SDY       0.513000
     24 HO2         18.7810    -9.1150     0.4020 ho         1 SDY       0.521000
@<TRIPOS>BOND
     1     1     2 1   
     2     1     3 1   
     3     1    10 1   
     4     1    13 1   
     5     2    23 1   
     6     3     4 1   
     7     3     5 1   
     8     3    14 1   
     9     4    24 1   
    10     5     6 1   
    11     5     7 1   
    12     5    15 1   
    13     6    22 1   
    14     7     8 1   
    15     7     9 1   
    16     7    16 1   
    17     8    17 1   
    18     9    10 1   
    19     9    11 1   
    20     9    18 1   
    21    11    12 1   
    22    11    19 1   
    23    11    20 1   
    24    12    21 1   
@<TRIPOS>SUBSTRUCTURE
     1 SDY         1 TEMP              0 ****  ****    0 ROOT
