@<TRIPOS>MOLECULE
SDY
   24    24     1     0     0
SMALL
abcg2


@<TRIPOS>ATOM
      1 C1          20.5620    -8.7730    -1.4760 c6         1 SDY       0.397300
      2 O1          21.4460    -9.8100    -1.2710 oh         1 SDY      -0.671000
      3 C2          19.1370    -9.2980    -1.3530 c6         1 SDY       0.169300
      4 O2          19.0020    -9.9820    -0.1360 oh         1 SDY      -0.679000
      5 C3          18.1820    -8.1140    -1.4830 c6         1 SDY       0.131300
      6 O3          16.8800    -8.6110    -1.3040 oh         1 SDY      -0.708000
      7 C4          18.5270    -6.9700    -0.5260 c6         1 SDY       0.108300
      8 O4          18.2090    -7.3360     0.7950 oh         1 SDY      -0.685000
      9 C5          20.0090    -6.6280    -0.7060 c6         1 SDY       0.156300
     10 O5          20.8130    -7.7720    -0.5200 os         1 SDY      -0.451000
     11 C6          20.4700    -5.5550     0.2560 c3         1 SDY       0.168600
     12 O6          21.7710    -5.1510    -0.0990 oh         1 SDY      -0.708000
     13 H1          20.6730    -8.3410    -2.4870 h2         1 SDY       0.006700
     14 H2          18.9570    -9.9710    -2.2060 h1         1 SDY       0.050700
     15 H3          18.3130    -7.7130    -2.5000 h1         1 SDY       0.035700
     16 H4          17.9470    -6.0890    -0.8360 h1         1 SDY       0.026700
     17 HO4         17.9930    -6.5420     1.2890 ho         1 SDY       0.500000
     18 H5          20.1300    -6.2440    -1.7340 h1         1 SDY       0.041700
     19 H61         19.7560    -4.7210     0.1990 h1         1 SDY       0.028700
     20 H62         20.4330    -5.9430     1.2810 h1         1 SDY       0.028700
     21 HO6         22.0620    -4.4960     0.5410 ho         1 SDY       0.506000
     22 HO3         16.2590    -7.8750    -1.2880 ho         1 SDY       0.511000
     23 HO1         22.3160    -9.5490    -1.5920 ho         1 SDY       0.513000
     24 HO2         18.0720    -9.9670     0.1120 ho         1 SDY       0.521000
@<TRIPOS>BOND
     1     1     2 1   
     2     1     3 1   
     3     1    10 1   
     4     1    13 1   
     5     2    23 1   
     6     3     4 1   
     7     3     5 1   
     8     3    14 1   
     9     4    24 1   
    10     5     6 1   
    11     5     7 1   
    12     5    15 1   
    13     6    22 1   
    14     7     8 1   
    15     7     9 1   
    16     7    16 1   
    17     8    17 1   
    18     9    10 1   
    19     9    11 1   
    20     9    18 1   
    21    11    12 1   
    22    11    19 1   
    23    11    20 1   
    24    12    21 1   
@<TRIPOS>SUBSTRUCTURE
     1 SDY         1 TEMP              0 ****  ****    0 ROOT
