@<TRIPOS>MOLECULE
SDZ
   62    65     1     0     0
SMALL
No Charge or Current Charge


@<TRIPOS>ATOM
      1 N1           0.7300     0.9880    -7.9090 nb         1 SDZ      -0.751000
      2 C2           0.9650     1.0530    -9.2370 ca         1 SDZ       0.385900
      3 C3           0.4720     0.1060   -10.1480 ca         1 SDZ      -0.219000
      4 C4          -0.2990    -0.9610    -9.6730 ca         1 SDZ      -0.038000
      5 C5          -0.5440    -1.0280    -8.2930 ca         1 SDZ      -0.226000
      6 C6          -0.0110    -0.0350    -7.4460 ca         1 SDZ       0.614900
      7 N2          -0.2190    -0.0250    -6.0530 nh         1 SDZ      -0.773300
      8 C7           0.9030     0.3200    -5.1140 c6         1 SDZ       0.214300
      9 C8           0.4050     0.7700    -3.7030 c6         1 SDZ       0.155300
     10 N3          -0.5450    -0.2060    -3.0780 n3         1 SDZ      -0.740600
     11 C9          -1.2550    -0.9060    -5.4250 c6         1 SDZ       0.214300
     12 C10         -1.6960    -0.4200    -4.0070 c6         1 SDZ       0.155300
     13 C11         -0.9930     0.1950    -1.7100 c3         1 SDZ       0.123800
     14 C12          0.1410     0.1280    -0.6550 c3         1 SDZ       0.172300
     15 O1           0.9190    -1.0300    -0.9890 oh         1 SDZ      -0.652000
     16 C13         -0.3960     0.0680     0.7990 c3         1 SDZ       0.159600
     17 O2           0.7160     0.1560     1.7130 os         1 SDZ      -0.332100
     18 C14          0.5450     0.1350     3.0820 ca         1 SDZ       0.144100
     19 C15          1.6900     0.2270     3.8880 ca         1 SDZ      -0.171500
     20 C16          1.5800     0.2130     5.2890 ca         1 SDZ      -0.070500
     21 C17          0.3160     0.1050     5.9030 ca         1 SDZ      -0.112300
     22 C18         -0.8340     0.0130     5.0920 ca         1 SDZ      -0.070500
     23 C19         -0.7240     0.0280     3.6900 ca         1 SDZ      -0.171500
     24 C20          0.2050     0.0900     7.4350 c6         1 SDZ      -0.009400
     25 C21         -0.6110     1.3010     7.9690 c6         1 SDZ      -0.068400
     26 C22         -0.6960     1.2890     9.5160 c6         1 SDZ      -0.074400
     27 C23         -1.2890    -0.0440    10.0340 c6         1 SDZ      -0.074400
     28 C24         -0.4850    -1.2570     9.5060 c6         1 SDZ      -0.074400
     29 C25         -0.4000    -1.2420     7.9590 c6         1 SDZ      -0.068400
     30 H2           1.5680     1.8920    -9.5820 h4         1 SDZ       0.015100
     31 H3           0.6920     0.2060   -11.2070 ha         1 SDZ       0.125000
     32 H4          -0.6950    -1.7150   -10.3510 ha         1 SDZ       0.114000
     33 H5          -1.1290    -1.8500    -7.8960 ha         1 SDZ       0.119000
     34 H71          1.5280     1.1310    -5.5150 h1         1 SDZ       0.055950
     35 H72          1.5570    -0.5550    -4.9890 h1         1 SDZ       0.055950
     36 H81         -0.0810     1.7520    -3.8070 h1         1 SDZ       0.044950
     37 H82          1.2870     0.9210    -3.0650 h1         1 SDZ       0.044950
     38 H91         -2.1560    -0.9470    -6.0550 h1         1 SDZ       0.055950
     39 H92         -0.8670    -1.9310    -5.3380 h1         1 SDZ       0.055950
     40 H101        -2.3900    -1.1630    -3.5880 h1         1 SDZ       0.044950
     41 H102        -2.2640     0.5150    -4.1220 h1         1 SDZ       0.044950
     42 H111        -1.7950    -0.4800    -1.3820 h1         1 SDZ       0.045200
     43 H112        -1.4150     1.2100    -1.7210 h1         1 SDZ       0.045200
     44 H12          0.7560     1.0310    -0.7610 h1         1 SDZ       0.048700
     45 HO1          0.6620    -1.1690    -1.9360 ho         1 SDZ       0.469000
     46 H131        -1.0860     0.9070     0.9590 h1         1 SDZ       0.037700
     47 H132        -0.9500    -0.8680     0.9470 h1         1 SDZ       0.037700
     48 H15          2.6690     0.3110     3.4240 ha         1 SDZ       0.120000
     49 H16          2.4810     0.2850     5.8950 ha         1 SDZ       0.110500
     50 H18         -1.8190    -0.0710     5.5460 ha         1 SDZ       0.110500
     51 H19         -1.6310    -0.0450     3.0970 ha         1 SDZ       0.120000
     52 H20          1.2190     0.1730     7.8520 hc         1 SDZ       0.047700
     53 H211        -0.1460     2.2380     7.6330 hc         1 SDZ       0.040700
     54 H212        -1.6260     1.2900     7.5490 hc         1 SDZ       0.040700
     55 H221         0.3060     1.4400     9.9430 hc         1 SDZ       0.037950
     56 H222        -1.3120     2.1310     9.8610 hc         1 SDZ       0.037950
     57 H231        -1.2930    -0.0480    11.1330 hc         1 SDZ       0.037200
     58 H232        -2.3380    -0.1290     9.7180 hc         1 SDZ       0.037200
     59 H241         0.5280    -1.2440     9.9330 hc         1 SDZ       0.037950
     60 H242        -0.9540    -2.1910     9.8450 hc         1 SDZ       0.037950
     61 H251        -1.4040    -1.3950     7.5390 hc         1 SDZ       0.040700
     62 H252         0.2120    -2.0880     7.6160 hc         1 SDZ       0.040700
@<TRIPOS>BOND
     1     1     2 ar  
     2     1     6 ar  
     3     2     3 ar  
     4     2    30 1   
     5     3     4 ar  
     6     3    31 1   
     7     4     5 ar  
     8     4    32 1   
     9     5     6 ar  
    10     5    33 1   
    11     6     7 1   
    12     7     8 1   
    13     7    11 1   
    14     8     9 1   
    15     8    34 1   
    16     8    35 1   
    17     9    10 1   
    18     9    36 1   
    19     9    37 1   
    20    10    12 1   
    21    10    13 1   
    22    11    12 1   
    23    11    38 1   
    24    11    39 1   
    25    12    40 1   
    26    12    41 1   
    27    13    14 1   
    28    13    42 1   
    29    13    43 1   
    30    14    15 1   
    31    14    16 1   
    32    14    44 1   
    33    15    45 1   
    34    16    17 1   
    35    16    46 1   
    36    16    47 1   
    37    17    18 1   
    38    18    19 ar  
    39    18    23 ar  
    40    19    20 ar  
    41    19    48 1   
    42    20    21 ar  
    43    20    49 1   
    44    21    22 ar  
    45    21    24 1   
    46    22    23 ar  
    47    22    50 1   
    48    23    51 1   
    49    24    25 1   
    50    24    29 1   
    51    24    52 1   
    52    25    26 1   
    53    25    53 1   
    54    25    54 1   
    55    26    27 1   
    56    26    55 1   
    57    26    56 1   
    58    27    28 1   
    59    27    57 1   
    60    27    58 1   
    61    28    29 1   
    62    28    59 1   
    63    28    60 1   
    64    29    61 1   
    65    29    62 1   
@<TRIPOS>SUBSTRUCTURE
     1 SDZ         1 TEMP              0 ****  ****    0 ROOT
