@<TRIPOS>MOLECULE
SDZ
   62    65     1     0     0
SMALL
bcc


@<TRIPOS>ATOM
      1 N1           1.0410     0.5410    -7.6580 nb         1 SDZ      -0.751000
      2 C2           1.2660     0.5560    -8.9660 ca         1 SDZ       0.451200
      3 C3           0.4710    -0.0870    -9.8950 ca         1 SDZ      -0.302300
      4 C4          -0.6260    -0.7870    -9.4030 ca         1 SDZ      -0.056000
      5 C5          -0.8810    -0.8150    -8.0490 ca         1 SDZ      -0.309300
      6 C6          -0.0150    -0.1180    -7.1800 ca         1 SDZ       0.680200
      7 N2          -0.2220    -0.0590    -5.8230 nh         1 SDZ      -0.773300
      8 C7           0.8400     0.4360    -4.9650 c6         1 SDZ       0.214300
      9 C8           0.2810     0.9590    -3.6590 c6         1 SDZ       0.155300
     10 N3          -0.5040    -0.0600    -2.9860 n3         1 SDZ      -0.740600
     11 C9          -1.0970    -1.0080    -5.1630 c6         1 SDZ       0.214300
     12 C10         -1.6030    -0.4620    -3.8420 c6         1 SDZ       0.155300
     13 C11         -0.9360     0.3360    -1.6590 c3         1 SDZ       0.123800
     14 C12          0.2270     0.1840    -0.6740 c3         1 SDZ       0.149100
     15 O1           0.8900    -1.0320    -0.9120 oh         1 SDZ      -0.589800
     16 C13         -0.3020     0.2120     0.7420 c3         1 SDZ       0.136400
     17 O2           0.7990     0.2470     1.6270 os         1 SDZ      -0.308900
     18 C14          0.5690     0.2230     2.9570 ca         1 SDZ       0.144100
     19 C15          1.6910     0.2900     3.7810 ca         1 SDZ      -0.189500
     20 C16          1.5450     0.2660     5.1580 ca         1 SDZ      -0.088500
     21 C17          0.2920     0.1720     5.7630 ca         1 SDZ      -0.112300
     22 C18         -0.8160     0.1080     4.9250 ca         1 SDZ      -0.088500
     23 C19         -0.6930     0.1360     3.5400 ca         1 SDZ      -0.189500
     24 C20          0.1620     0.1210     7.2640 c6         1 SDZ      -0.009400
     25 C21         -0.7570     1.2150     7.8180 c6         1 SDZ      -0.068400
     26 C22         -0.8380     1.1560     9.3410 c6         1 SDZ      -0.074400
     27 C23         -1.2930    -0.2190     9.8180 c6         1 SDZ      -0.074400
     28 C24         -0.3920    -1.3190     9.2680 c6         1 SDZ      -0.074400
     29 C25         -0.3010    -1.2590     7.7460 c6         1 SDZ      -0.068400
     30 H2           2.1400     1.1120    -9.2880 h4         1 SDZ       0.015100
     31 H3           0.7030    -0.0480   -10.9500 ha         1 SDZ       0.143000
     32 H4          -1.2880    -1.3170   -10.0770 ha         1 SDZ       0.132000
     33 H5          -1.7380    -1.3620    -7.6880 ha         1 SDZ       0.137000
     34 H71          1.3690     1.2380    -5.4710 h1         1 SDZ       0.055950
     35 H72          1.5710    -0.3590    -4.7600 h1         1 SDZ       0.055950
     36 H81         -0.3240     1.8600    -3.8510 h1         1 SDZ       0.044950
     37 H82          1.1210     1.2640    -3.0330 h1         1 SDZ       0.044950
     38 H91         -1.9710    -1.2170    -5.7750 h1         1 SDZ       0.055950
     39 H92         -0.5790    -1.9620    -4.9930 h1         1 SDZ       0.055950
     40 H101        -2.1790    -1.2460    -3.3480 h1         1 SDZ       0.044950
     41 H102        -2.2900     0.3780    -4.0340 h1         1 SDZ       0.044950
     42 H111        -1.7500    -0.3310    -1.3570 h1         1 SDZ       0.045200
     43 H112        -1.3310     1.3610    -1.6280 h1         1 SDZ       0.045200
     44 H12          0.9170     1.0330    -0.8000 h1         1 SDZ       0.048700
     45 HO1          0.7370    -1.2100    -1.8560 ho         1 SDZ       0.430000
     46 H131        -0.9400     1.0940     0.8810 h1         1 SDZ       0.037700
     47 H132        -0.9220    -0.6760     0.9160 h1         1 SDZ       0.037700
     48 H15          2.6770     0.3620     3.3380 ha         1 SDZ       0.138000
     49 H16          2.4320     0.3200     5.7790 ha         1 SDZ       0.128500
     50 H18         -1.8110     0.0320     5.3460 ha         1 SDZ       0.128500
     51 H19         -1.5900     0.0880     2.9370 ha         1 SDZ       0.138000
     52 H20          1.1610     0.2960     7.6820 hc         1 SDZ       0.047700
     53 H211        -0.4020     2.1970     7.4930 hc         1 SDZ       0.040700
     54 H212        -1.7650     1.0950     7.4050 hc         1 SDZ       0.040700
     55 H221         0.1460     1.3830     9.7660 hc         1 SDZ       0.037950
     56 H222        -1.5180     1.9290     9.7070 hc         1 SDZ       0.037950
     57 H231        -1.3090    -0.2550    10.9110 hc         1 SDZ       0.037200
     58 H232        -2.3220    -0.3930     9.4870 hc         1 SDZ       0.037200
     59 H241         0.6120    -1.2100     9.6910 hc         1 SDZ       0.037950
     60 H242        -0.7550    -2.3010     9.5820 hc         1 SDZ       0.037950
     61 H251        -1.2800    -1.4850     7.3090 hc         1 SDZ       0.040700
     62 H252         0.3870    -2.0260     7.3780 hc         1 SDZ       0.040700
@<TRIPOS>BOND
     1     1     2 ar  
     2     1     6 ar  
     3     2     3 ar  
     4     2    30 1   
     5     3     4 ar  
     6     3    31 1   
     7     4     5 ar  
     8     4    32 1   
     9     5     6 ar  
    10     5    33 1   
    11     6     7 1   
    12     7     8 1   
    13     7    11 1   
    14     8     9 1   
    15     8    34 1   
    16     8    35 1   
    17     9    10 1   
    18     9    36 1   
    19     9    37 1   
    20    10    12 1   
    21    10    13 1   
    22    11    12 1   
    23    11    38 1   
    24    11    39 1   
    25    12    40 1   
    26    12    41 1   
    27    13    14 1   
    28    13    42 1   
    29    13    43 1   
    30    14    15 1   
    31    14    16 1   
    32    14    44 1   
    33    15    45 1   
    34    16    17 1   
    35    16    46 1   
    36    16    47 1   
    37    17    18 1   
    38    18    19 ar  
    39    18    23 ar  
    40    19    20 ar  
    41    19    48 1   
    42    20    21 ar  
    43    20    49 1   
    44    21    22 ar  
    45    21    24 1   
    46    22    23 ar  
    47    22    50 1   
    48    23    51 1   
    49    24    25 1   
    50    24    29 1   
    51    24    52 1   
    52    25    26 1   
    53    25    53 1   
    54    25    54 1   
    55    26    27 1   
    56    26    55 1   
    57    26    56 1   
    58    27    28 1   
    59    27    57 1   
    60    27    58 1   
    61    28    29 1   
    62    28    59 1   
    63    28    60 1   
    64    29    61 1   
    65    29    62 1   
@<TRIPOS>SUBSTRUCTURE
     1 SDZ         1 TEMP              0 ****  ****    0 ROOT
