@<TRIPOS>MOLECULE
SE0
   50    51     1     0     0
SMALL
No Charge or Current Charge


@<TRIPOS>ATOM
      1 N            3.3860    -2.3290    -2.6600 n8         1 SE0      -0.977200
      2 CA           4.1920    -1.6890    -1.5390 c3         1 SE0       0.001500
      3 C            5.5800    -2.3620    -1.2250 c          1 SE0       0.696000
      4 O            5.5940    -3.5430    -0.9020 o          1 SE0      -0.734500
      5 CB           3.3950    -1.5740    -0.2110 c3         1 SE0       0.188600
      6 OG           2.2490    -0.7270    -0.4280 os         1 SE0      -0.405100
      7 OXT          6.5960    -1.7070    -1.4050 o          1 SE0      -0.734500
      8 S1           1.9040     2.6370     0.5050 ss         1 SE0      -0.465000
      9 C2           1.6450     4.0950     1.5870 c6         1 SE0       0.093800
     10 C3           0.2330     4.6740     1.4330 ce         1 SE0      -0.202800
     11 C5          -0.0620     5.8330     2.0730 c2         1 SE0      -0.280000
     12 C4          -0.7420     3.9320     0.5670 ce         1 SE0       0.441600
     13 C9          -1.7200     4.6820    -0.3870 c          1 SE0       0.646700
     14 O4A         -2.5770     4.0510    -1.0060 o          1 SE0      -0.705000
     15 O4B         -1.6160     5.8980    -0.5350 o          1 SE0      -0.705000
     16 N5          -0.8340     2.6250     0.6870 n2         1 SE0      -0.610900
     17 C6           0.3450     1.7990     0.9690 c6         1 SE0       0.269500
     18 C7           0.2300     0.4170     0.2550 c3         1 SE0       0.065700
     19 C8           1.4080    -0.5040     0.6310 c          1 SE0       0.585100
     20 O9           1.5550    -1.0010     1.7430 o          1 SE0      -0.538000
     21 N10         -1.0500    -0.2860     0.5400 ns         1 SE0      -0.477900
     22 C11         -2.0870    -0.4250    -0.3550 c          1 SE0       0.619100
     23 O12         -2.0090    -0.0300    -1.5100 o          1 SE0      -0.574100
     24 C13         -3.3450    -1.0820     0.2190 c3         1 SE0      -0.154400
     25 C14         -3.4420    -2.5780    -0.1610 c5         1 SE0       0.090300
     26 C15         -4.5400    -3.3490     0.6260 c5         1 SE0      -0.086400
     27 C16         -4.6580    -4.6870    -0.1500 c5         1 SE0      -0.078400
     28 C17         -5.0230    -4.2200    -1.5820 c5         1 SE0       0.028600
     29 S19         -3.8830    -2.8020    -1.9550 ss         1 SE0      -0.344000
     30 HN           3.9510    -2.3400    -3.5180 hn         1 SE0       0.376500
     31 HNA          3.2600    -3.3260    -2.4470 hn         1 SE0       0.376500
     32 HA           4.4210    -0.6630    -1.8580 h1         1 SE0       0.060700
     33 HB           3.0870    -2.5740     0.1230 h1         1 SE0       0.049200
     34 HBA          4.0450    -1.1420     0.5620 h1         1 SE0       0.049200
     35 H2           1.8080     3.7810     2.6290 h1         1 SE0       0.058200
     36 H2A          2.4020     4.8510     1.3350 h1         1 SE0       0.058200
     37 H3           0.6730     6.3520     2.6900 ha         1 SE0       0.162500
     38 H3'A        -1.0470     6.2970     2.0090 ha         1 SE0       0.162500
     39 H6           0.3960     1.6220     2.0550 h2         1 SE0       0.063700
     40 H7           0.3090     0.6020    -0.8230 h1         1 SE0       0.130700
     41 HN10        -1.2050    -0.6390     1.4780 hn         1 SE0       0.309500
     42 H13         -3.3120    -1.0150     1.3130 hc         1 SE0       0.064200
     43 H13A        -4.2300    -0.5540    -0.1540 hc         1 SE0       0.064200
     44 H14         -2.4650    -3.0500     0.0160 h1         1 SE0       0.074700
     45 H15         -4.2510    -3.5080     1.6710 hc         1 SE0       0.046200
     46 H15A        -5.4920    -2.8050     0.6350 hc         1 SE0       0.046200
     47 H16         -3.7160    -5.2480    -0.1360 hc         1 SE0       0.039200
     48 H16A        -5.4300    -5.3420     0.2700 hc         1 SE0       0.039200
     49 H17         -4.9000    -5.0200    -2.3240 h1         1 SE0       0.057700
     50 H17A        -6.0610    -3.8650    -1.6300 h1         1 SE0       0.057700
@<TRIPOS>BOND
     1     1     2 1   
     2     1    30 1   
     3     1    31 1   
     4     2     3 1   
     5     2     5 1   
     6     2    32 1   
     7     3     4 1   
     8     3     7 1   
     9     5     6 1   
    10     5    33 1   
    11     5    34 1   
    12     6    19 1   
    13     8     9 1   
    14     8    17 1   
    15     9    10 1   
    16     9    35 1   
    17     9    36 1   
    18    10    11 2   
    19    10    12 1   
    20    11    37 1   
    21    11    38 1   
    22    12    13 1   
    23    12    16 2   
    24    13    14 1   
    25    13    15 1   
    26    16    17 1   
    27    17    18 1   
    28    17    39 1   
    29    18    19 1   
    30    18    21 1   
    31    18    40 1   
    32    19    20 2   
    33    21    22 1   
    34    21    41 1   
    35    22    23 2   
    36    22    24 1   
    37    24    25 1   
    38    24    42 1   
    39    24    43 1   
    40    25    26 1   
    41    25    29 1   
    42    25    44 1   
    43    26    27 1   
    44    26    45 1   
    45    26    46 1   
    46    27    28 1   
    47    27    47 1   
    48    27    48 1   
    49    28    29 1   
    50    28    49 1   
    51    28    50 1   
@<TRIPOS>SUBSTRUCTURE
     1 SE0         1 TEMP              0 ****  ****    0 ROOT
