@<TRIPOS>MOLECULE
SE0
   50    51     1     0     0
SMALL
bcc


@<TRIPOS>ATOM
      1 N            4.5070    -1.5390    -2.3130 n8         1 SE0      -0.866800
      2 CA           4.9870    -0.8660    -1.1200 c3         1 SE0       0.001500
      3 C            6.4660    -1.1470    -0.7250 c          1 SE0       0.906600
      4 O            7.1190    -1.9070    -1.4610 o          1 SE0      -0.839800
      5 CB           4.1000    -1.2010     0.0630 c3         1 SE0       0.165400
      6 OG           2.7630    -0.7570    -0.2320 os         1 SE0      -0.381900
      7 OXT          6.8700    -0.5700     0.3050 o          1 SE0      -0.839800
      8 S1           1.9090     2.1170     0.5230 ss         1 SE0      -0.369200
      9 C2           1.2680     3.6510     1.2460 c6         1 SE0       0.045900
     10 C3          -0.0110     4.0090     0.5590 ce         1 SE0      -0.202800
     11 C5          -0.2300     5.2370     0.0850 c2         1 SE0      -0.180000
     12 C4          -1.0300     2.9380     0.4700 ce         1 SE0       0.441600
     13 C9          -2.4640     3.3280     0.1260 c          1 SE0       0.857300
     14 O4A         -3.2610     3.3650     1.0770 o          1 SE0      -0.810300
     15 O4B         -2.6750     3.5700    -1.0740 o          1 SE0      -0.810300
     16 N5          -0.8290     1.7040     0.6990 n2         1 SE0      -0.610900
     17 C6           0.4400     1.1300     0.9990 c6         1 SE0       0.221600
     18 C7           0.5290    -0.2500     0.3090 c3         1 SE0       0.065700
     19 C8           1.8430    -0.9140     0.6920 c          1 SE0       0.634100
     20 O9           2.0020    -1.4870     1.7420 o          1 SE0      -0.587000
     21 N10         -0.5640    -1.0850     0.7100 ns         1 SE0      -0.544900
     22 C11         -1.6250    -1.3480    -0.0830 c          1 SE0       0.686100
     23 O12         -1.6660    -1.0650    -1.2680 o          1 SE0      -0.574100
     24 C13         -2.7650    -2.0470     0.6240 c3         1 SE0      -0.154400
     25 C14         -3.7790    -2.6520    -0.3250 c5         1 SE0       0.042400
     26 C15         -4.8900    -3.4030     0.4060 c5         1 SE0      -0.086400
     27 C16         -6.0790    -3.4810    -0.5390 c5         1 SE0      -0.078400
     28 C17         -6.3030    -2.0650    -1.0530 c5         1 SE0      -0.019300
     29 S19         -4.6350    -1.3640    -1.3190 ss         1 SE0      -0.248200
     30 HN           5.0300    -1.1950    -3.1080 hn         1 SE0       0.321300
     31 HNA          4.7640    -2.5180    -2.2510 hn         1 SE0       0.321300
     32 HA           4.9070     0.2150    -1.2930 h1         1 SE0       0.060700
     33 HB           4.0910    -2.2790     0.2490 h1         1 SE0       0.049200
     34 HBA          4.4570    -0.6980     0.9620 h1         1 SE0       0.049200
     35 H2           1.1200     3.5020     2.3180 h1         1 SE0       0.058200
     36 H2A          2.0250     4.4230     1.1170 h1         1 SE0       0.058200
     37 H3           0.5180     6.0130     0.1860 ha         1 SE0       0.112500
     38 H3'A        -1.1430     5.5070    -0.4250 ha         1 SE0       0.112500
     39 H6           0.4930     0.9680     2.0830 h2         1 SE0       0.063700
     40 H7           0.4760    -0.1050    -0.7690 h1         1 SE0       0.130700
     41 HN10        -0.6310    -1.3230     1.6880 hn         1 SE0       0.309500
     42 H13         -2.3610    -2.8290     1.2740 hc         1 SE0       0.064200
     43 H13A        -3.2580    -1.3240     1.2820 hc         1 SE0       0.064200
     44 H14         -3.2740    -3.3320    -1.0150 h1         1 SE0       0.074700
     45 H15         -4.5400    -4.3890     0.7170 hc         1 SE0       0.046200
     46 H15A        -5.1730    -2.8550     1.3090 hc         1 SE0       0.046200
     47 H16         -5.8510    -4.1490    -1.3730 hc         1 SE0       0.039200
     48 H16A        -6.9720    -3.8650    -0.0440 hc         1 SE0       0.039200
     49 H17         -6.8610    -2.0420    -1.9880 h1         1 SE0       0.057700
     50 H17A        -6.8450    -1.4650    -0.3210 h1         1 SE0       0.057700
@<TRIPOS>BOND
     1     1     2 1   
     2     1    30 1   
     3     1    31 1   
     4     2     3 1   
     5     2     5 1   
     6     2    32 1   
     7     3     4 1   
     8     3     7 1   
     9     5     6 1   
    10     5    33 1   
    11     5    34 1   
    12     6    19 1   
    13     8     9 1   
    14     8    17 1   
    15     9    10 1   
    16     9    35 1   
    17     9    36 1   
    18    10    11 2   
    19    10    12 1   
    20    11    37 1   
    21    11    38 1   
    22    12    13 1   
    23    12    16 2   
    24    13    14 1   
    25    13    15 1   
    26    16    17 1   
    27    17    18 1   
    28    17    39 1   
    29    18    19 1   
    30    18    21 1   
    31    18    40 1   
    32    19    20 2   
    33    21    22 1   
    34    21    41 1   
    35    22    23 2   
    36    22    24 1   
    37    24    25 1   
    38    24    42 1   
    39    24    43 1   
    40    25    26 1   
    41    25    29 1   
    42    25    44 1   
    43    26    27 1   
    44    26    45 1   
    45    26    46 1   
    46    27    28 1   
    47    27    47 1   
    48    27    48 1   
    49    28    29 1   
    50    28    49 1   
    51    28    50 1   
@<TRIPOS>SUBSTRUCTURE
     1 SE0         1 TEMP              0 ****  ****    0 ROOT
