@<TRIPOS>MOLECULE
SE1
   54    58     1     0     0
SMALL
No Charge or Current Charge


@<TRIPOS>ATOM
      1 C01        -27.6060    17.1400     0.0840 ca         1 SE1      -0.159000
      2 C02        -26.4910    17.2750    -0.7560 ca         1 SE1      -0.109000
      3 C03        -26.2990    16.3740    -1.8170 ca         1 SE1      -0.112000
      4 C04        -27.2220    15.3320    -2.0540 ca         1 SE1      -0.070600
      5 C05        -28.3430    15.1990    -1.1970 ca         1 SE1      -0.131000
      6 C06        -28.5280    16.1030    -0.1340 ca         1 SE1      -0.079000
      7 C08        -31.0360    14.8350    -1.5750 ca         1 SE1      -0.007000
      8 C09        -32.1730    14.6210    -0.7500 ca         1 SE1      -0.254500
      9 C10        -33.3190    15.4280    -0.9350 ca         1 SE1      -0.042000
     10 C11        -33.3420    16.4210    -1.9280 ca         1 SE1      -0.147000
     11 C12        -32.2210    16.6240    -2.7460 ca         1 SE1      -0.073000
     12 C13        -31.0750    15.8340    -2.5680 ca         1 SE1      -0.091000
     13 C16        -32.9030    11.2320    -1.0750 c6         1 SE1       0.266200
     14 C17        -33.8800    10.3950    -0.1800 c6         1 SE1      -0.086733
     15 C18        -34.8530     9.5590    -1.0640 c6         1 SE1      -0.055033
     16 C19        -35.6740    10.5160    -1.9780 c6         1 SE1      -0.070733
     17 C20        -34.7100    11.3180    -2.9000 c6         1 SE1      -0.055033
     18 C21        -33.7370    12.1590    -2.0230 c6         1 SE1      -0.086733
     19 C22        -33.8930    10.3310    -3.7790 c6         1 SE1      -0.070733
     20 C23        -33.0730     9.3810    -2.8630 c6         1 SE1      -0.055033
     21 C24        -32.1140    10.2260    -1.9760 c6         1 SE1      -0.086733
     22 C25        -34.0380     8.5760    -1.9480 c6         1 SE1      -0.070733
     23 C28        -26.9870    14.3900    -3.2160 c          1 SE1       0.719600
     24 N15        -31.8660    11.9380    -0.2820 n7         1 SE1      -0.917300
     25 O26        -33.5510    13.2270     1.1240 o          1 SE1      -0.564000
     26 O27        -31.0400    13.5390     1.4070 o          1 SE1      -0.564000
     27 O29        -25.9570    13.7290    -3.2180 o          1 SE1      -0.707500
     28 O30        -27.7870    14.3950    -4.1410 o          1 SE1      -0.707500
     29 S07        -29.5280    13.8710    -1.4210 ss         1 SE1       0.062000
     30 S14        -32.2110    13.3540     0.5470 sy         1 SE1       1.175600
     31 H011       -27.7550    17.8350     0.9070 ha         1 SE1       0.092000
     32 H021       -25.7750    18.0750    -0.5860 ha         1 SE1       0.088000
     33 H031       -25.4330    16.4860    -2.4660 ha         1 SE1       0.118000
     34 H061       -29.3860    15.9980     0.5270 ha         1 SE1       0.119000
     35 H101       -34.2000    15.2890    -0.3120 ha         1 SE1       0.126000
     36 H111       -34.2300    17.0340    -2.0620 ha         1 SE1       0.101000
     37 H121       -32.2390    17.3930    -3.5150 ha         1 SE1       0.109000
     38 H131       -30.2090    15.9950    -3.2060 ha         1 SE1       0.180000
     39 H171       -34.4770    11.0400     0.4750 hc         1 SE1       0.057533
     40 H172       -33.3130     9.7260     0.4820 hc         1 SE1       0.057533
     41 H181       -35.5380     8.9910    -0.4200 hc         1 SE1       0.047367
     42 H191       -36.2740    11.2040    -1.3660 hc         1 SE1       0.038533
     43 H192       -36.3860     9.9410    -2.5850 hc         1 SE1       0.038533
     44 H201       -35.2930    11.9880    -3.5470 hc         1 SE1       0.047367
     45 H211       -33.0690    12.7470    -2.6660 hc         1 SE1       0.057533
     46 H212       -34.3320    12.8750    -1.4430 hc         1 SE1       0.057533
     47 H221       -34.5670     9.7490    -4.4230 hc         1 SE1       0.038533
     48 H222       -33.2230    10.8850    -4.4500 hc         1 SE1       0.038533
     49 H231       -32.4880     8.6870    -3.4820 hc         1 SE1       0.047367
     50 H242       -31.5040     9.5560    -1.3540 hc         1 SE1       0.057533
     51 H241       -31.4070    10.7730    -2.6150 hc         1 SE1       0.057533
     52 H251       -34.7150     7.9620    -2.5580 hc         1 SE1       0.038533
     53 H252       -33.4700     7.8780    -1.3170 hc         1 SE1       0.038533
     54 H151       -31.5590    11.3430     0.4820 hn         1 SE1       0.500000
@<TRIPOS>BOND
     1     1     2 ar  
     2     1     6 ar  
     3     1    31 1   
     4     2     3 ar  
     5     2    32 1   
     6     3     4 ar  
     7     3    33 1   
     8     4     5 ar  
     9     4    23 1   
    10     5     6 ar  
    11     5    29 1   
    12     6    34 1   
    13     7     8 ar  
    14     7    12 ar  
    15     7    29 1   
    16     8     9 ar  
    17     8    30 1   
    18     9    10 ar  
    19     9    35 1   
    20    10    11 ar  
    21    10    36 1   
    22    11    12 ar  
    23    11    37 1   
    24    12    38 1   
    25    13    14 1   
    26    13    18 1   
    27    13    21 1   
    28    13    24 1   
    29    14    15 1   
    30    14    39 1   
    31    14    40 1   
    32    15    16 1   
    33    15    22 1   
    34    15    41 1   
    35    16    17 1   
    36    16    42 1   
    37    16    43 1   
    38    17    18 1   
    39    17    19 1   
    40    17    44 1   
    41    18    45 1   
    42    18    46 1   
    43    19    20 1   
    44    19    47 1   
    45    19    48 1   
    46    20    21 1   
    47    20    22 1   
    48    20    49 1   
    49    21    50 1   
    50    21    51 1   
    51    22    52 1   
    52    22    53 1   
    53    23    27 1   
    54    23    28 1   
    55    24    30 1   
    56    24    54 1   
    57    25    30 2   
    58    26    30 2   
@<TRIPOS>SUBSTRUCTURE
     1 SE1         1 TEMP              0 ****  ****    0 ROOT
