@<TRIPOS>MOLECULE
SE1
   54    58     1     0     0
SMALL
abcg2


@<TRIPOS>ATOM
      1 C01        -27.4290    16.7870     0.2370 ca         1 SE1      -0.159000
      2 C02        -26.4330    16.9490    -0.7200 ca         1 SE1      -0.109000
      3 C03        -26.4430    16.1730    -1.8690 ca         1 SE1      -0.112000
      4 C04        -27.4640    15.2530    -2.1180 ca         1 SE1      -0.070600
      5 C05        -28.4480    15.0950    -1.1440 ca         1 SE1      -0.131000
      6 C06        -28.4210    15.8430     0.0330 ca         1 SE1      -0.079000
      7 C08        -31.1280    14.8840    -1.5310 ca         1 SE1      -0.007000
      8 C09        -32.2890    14.7380    -0.7690 ca         1 SE1      -0.254500
      9 C10        -33.3910    15.5560    -0.9840 ca         1 SE1      -0.042000
     10 C11        -33.3450    16.5330    -1.9650 ca         1 SE1      -0.147000
     11 C12        -32.1980    16.6830    -2.7320 ca         1 SE1      -0.073000
     12 C13        -31.1020    15.8620    -2.5220 ca         1 SE1      -0.091000
     13 C16        -32.9460    11.3000    -1.0720 c6         1 SE1       0.266200
     14 C17        -33.9020    10.4720    -0.2050 c6         1 SE1      -0.086733
     15 C18        -34.7540     9.5620    -1.0930 c6         1 SE1      -0.055033
     16 C19        -35.5630    10.4240    -2.0640 c6         1 SE1      -0.070733
     17 C20        -34.6100    11.2400    -2.9390 c6         1 SE1      -0.055033
     18 C21        -33.7510    12.1520    -2.0580 c6         1 SE1      -0.086733
     19 C22        -33.7100    10.2940    -3.7320 c6         1 SE1      -0.070733
     20 C23        -32.8990     9.4370    -2.7590 c6         1 SE1      -0.055033
     21 C24        -32.0480    10.3480    -1.8740 c6         1 SE1      -0.086733
     22 C25        -33.8470     8.6170    -1.8830 c6         1 SE1      -0.070733
     23 C28        -27.4600    14.5000    -3.4430 c          1 SE1       0.719600
     24 N15        -32.0290    12.1180    -0.2630 n7         1 SE1      -0.917300
     25 O26        -33.7670    13.5330     1.0060 o          1 SE1      -0.564000
     26 O27        -31.3280    13.7280     1.4810 o          1 SE1      -0.564000
     27 O29        -26.4350    13.8420    -3.6880 o          1 SE1      -0.707500
     28 O30        -28.4650    14.6540    -4.1610 o          1 SE1      -0.707500
     29 S07        -29.7070    13.8480    -1.3000 ss         1 SE1       0.062000
     30 S14        -32.3950    13.5090     0.5150 sy         1 SE1       1.175600
     31 H011       -27.4240    17.3790     1.1430 ha         1 SE1       0.092000
     32 H021       -25.6450    17.6730    -0.5650 ha         1 SE1       0.088000
     33 H031       -25.6540    16.2980    -2.6000 ha         1 SE1       0.118000
     34 H061       -29.1840    15.6810     0.7840 ha         1 SE1       0.119000
     35 H101       -34.2870    15.4300    -0.3950 ha         1 SE1       0.126000
     36 H111       -34.2050    17.1680    -2.1330 ha         1 SE1       0.101000
     37 H121       -32.1590    17.4340    -3.5110 ha         1 SE1       0.109000
     38 H131       -30.2170    15.9520    -3.1390 ha         1 SE1       0.180000
     39 H171       -34.5460    11.1350     0.3760 hc         1 SE1       0.057533
     40 H172       -33.3220     9.8740     0.5060 hc         1 SE1       0.057533
     41 H181       -35.4330     8.9820    -0.4620 hc         1 SE1       0.047367
     42 H191       -36.2310    11.0920    -1.5100 hc         1 SE1       0.038533
     43 H192       -36.1970     9.7900    -2.6920 hc         1 SE1       0.038533
     44 H201       -35.1850    11.8650    -3.6280 hc         1 SE1       0.047367
     45 H211       -33.0710    12.7460    -2.6770 hc         1 SE1       0.057533
     46 H212       -34.4060    12.8490    -1.5300 hc         1 SE1       0.057533
     47 H221       -34.3140     9.6540    -4.3830 hc         1 SE1       0.038533
     48 H222       -33.0380    10.8640    -4.3800 hc         1 SE1       0.038533
     49 H231       -32.2370     8.7680    -3.3150 hc         1 SE1       0.047367
     50 H242       -31.4480     9.7450    -1.1830 hc         1 SE1       0.057533
     51 H241       -31.3520    10.9320    -2.4830 hc         1 SE1       0.057533
     52 H251       -34.4490     7.9480    -2.5060 hc         1 SE1       0.038533
     53 H252       -33.2750     7.9850    -1.1960 hc         1 SE1       0.038533
     54 H151       -31.3160    11.5950     0.2330 hn         1 SE1       0.500000
@<TRIPOS>BOND
     1     1     2 ar  
     2     1     6 ar  
     3     1    31 1   
     4     2     3 ar  
     5     2    32 1   
     6     3     4 ar  
     7     3    33 1   
     8     4     5 ar  
     9     4    23 1   
    10     5     6 ar  
    11     5    29 1   
    12     6    34 1   
    13     7     8 ar  
    14     7    12 ar  
    15     7    29 1   
    16     8     9 ar  
    17     8    30 1   
    18     9    10 ar  
    19     9    35 1   
    20    10    11 ar  
    21    10    36 1   
    22    11    12 ar  
    23    11    37 1   
    24    12    38 1   
    25    13    14 1   
    26    13    18 1   
    27    13    21 1   
    28    13    24 1   
    29    14    15 1   
    30    14    39 1   
    31    14    40 1   
    32    15    16 1   
    33    15    22 1   
    34    15    41 1   
    35    16    17 1   
    36    16    42 1   
    37    16    43 1   
    38    17    18 1   
    39    17    19 1   
    40    17    44 1   
    41    18    45 1   
    42    18    46 1   
    43    19    20 1   
    44    19    47 1   
    45    19    48 1   
    46    20    21 1   
    47    20    22 1   
    48    20    49 1   
    49    21    50 1   
    50    21    51 1   
    51    22    52 1   
    52    22    53 1   
    53    23    27 1   
    54    23    28 1   
    55    24    30 1   
    56    24    54 1   
    57    25    30 2   
    58    26    30 2   
@<TRIPOS>SUBSTRUCTURE
     1 SE1         1 TEMP              0 ****  ****    0 ROOT
