@<TRIPOS>MOLECULE
SE2
   18    19     1     0     0
SMALL
bcc


@<TRIPOS>ATOM
      1 O8          -2.6500     1.5090     0.1640 o          1 SE2      -0.577500
      2 C8          -1.6790     0.7930     0.1010 c          1 SE2       0.716800
      3 O1          -0.4590     1.3420     0.0940 os         1 SE2      -0.313200
      4 C11          0.6900     0.6140     0.0270 ca         1 SE2       0.134100
      5 C10          1.8900     1.3070     0.0290 ca         1 SE2      -0.133000
      6 C1           3.0720     0.5890    -0.0370 ca         1 SE2      -0.096000
      7 C2           3.0500    -0.8040    -0.1040 ca         1 SE2      -0.143000
      8 C3           1.8460    -1.4790    -0.1040 ca         1 SE2      -0.083000
      9 C4           0.6380    -0.7760    -0.0390 ca         1 SE2      -0.106800
     10 C5          -0.6480    -1.4140    -0.0350 cc         1 SE2      -0.109200
     11 C7          -1.7660    -0.6670     0.0290 cd         1 SE2      -0.001100
     12 O11         -2.9920    -1.1970     0.0350 oh         1 SE2      -0.477100
     13 H10          1.8960     2.3880     0.0820 ha         1 SE2       0.156000
     14 H1           4.0150     1.1180    -0.0360 ha         1 SE2       0.141000
     15 H2           3.9780    -1.3570    -0.1560 ha         1 SE2       0.140000
     16 H3           1.8230    -2.5600    -0.1550 ha         1 SE2       0.140000
     17 H5          -0.7080    -2.4940    -0.0860 ha         1 SE2       0.159000
     18 H11         -3.6550    -0.4950     0.0860 ho         1 SE2       0.453000
@<TRIPOS>BOND
     1     1     2 2   
     2     2     3 1   
     3     2    11 1   
     4     3     4 1   
     5     4     5 ar  
     6     4     9 ar  
     7     5     6 ar  
     8     5    13 1   
     9     6     7 ar  
    10     6    14 1   
    11     7     8 ar  
    12     7    15 1   
    13     8     9 ar  
    14     8    16 1   
    15     9    10 1   
    16    10    11 2   
    17    10    17 1   
    18    11    12 1   
    19    12    18 1   
@<TRIPOS>SUBSTRUCTURE
     1 SE2         1 TEMP              0 ****  ****    0 ROOT
