@<TRIPOS>MOLECULE
SE2
   18    19     1     0     0
SMALL
No Charge or Current Charge


@<TRIPOS>ATOM
      1 O8          -2.7340     1.5150     0.1630 o          1 SE2      -0.502000
      2 C8          -1.7230     0.8250     0.1020 c          1 SE2       0.641300
      3 O1          -0.4740     1.3860     0.0960 os         1 SE2      -0.313200
      4 C11          0.6840     0.6530     0.0300 ca         1 SE2       0.134100
      5 C10          1.9180     1.3240     0.0300 ca         1 SE2      -0.115000
      6 C1           3.1160     0.5930    -0.0370 ca         1 SE2      -0.078000
      7 C2           3.0760    -0.8100    -0.1050 ca         1 SE2      -0.125000
      8 C3           1.8410    -1.4830    -0.1050 ca         1 SE2      -0.065000
      9 C4           0.6370    -0.7550    -0.0380 ca         1 SE2      -0.106800
     10 C5          -0.6420    -1.4580    -0.0380 cc         1 SE2      -0.159200
     11 C7          -1.7790    -0.6810     0.0300 cd         1 SE2      -0.001100
     12 O11         -3.0260    -1.2330     0.0360 oh         1 SE2      -0.516100
     13 H10          1.9430     2.4100     0.0820 ha         1 SE2       0.138000
     14 H1           4.0730     1.1130    -0.0370 ha         1 SE2       0.123000
     15 H2           4.0030    -1.3780    -0.1570 ha         1 SE2       0.122000
     16 H3           1.8220    -2.5690    -0.1580 ha         1 SE2       0.122000
     17 H5          -0.7160    -2.5410    -0.0890 ha         1 SE2       0.209000
     18 H11         -3.6780    -0.4940     0.0890 ho         1 SE2       0.492000
@<TRIPOS>BOND
     1     1     2 2   
     2     2     3 1   
     3     2    11 1   
     4     3     4 1   
     5     4     5 ar  
     6     4     9 ar  
     7     5     6 ar  
     8     5    13 1   
     9     6     7 ar  
    10     6    14 1   
    11     7     8 ar  
    12     7    15 1   
    13     8     9 ar  
    14     8    16 1   
    15     9    10 1   
    16    10    11 2   
    17    10    17 1   
    18    11    12 1   
    19    12    18 1   
@<TRIPOS>SUBSTRUCTURE
     1 SE2         1 TEMP              0 ****  ****    0 ROOT
