@<TRIPOS>MOLECULE
SE3
   49    51     1     0     0
SMALL
No Charge or Current Charge


@<TRIPOS>ATOM
      1 C10        -16.2880   -22.1600     3.1400 ca         1 SE3      -0.063000
      2 C11        -15.5520   -21.3740     2.2350 ca         1 SE3      -0.164500
      3 C12        -16.7080   -18.5980    -1.4880 c          1 SE3       0.600100
      4 C15        -17.7190   -20.4320    -2.9890 ca         1 SE3      -0.020000
      5 C16        -18.3080   -19.6430    -4.0020 ca         1 SE3      -0.132000
      6 C17        -19.0760   -20.2240    -5.0400 ca         1 SE3       0.017000
      7 C18        -19.2360   -21.6300    -5.0360 ca         1 SE3      -0.127000
      8 C19        -18.6480   -22.4210    -4.0360 ca         1 SE3      -0.082000
      9 C20        -17.8920   -21.8240    -3.0200 ca         1 SE3      -0.162000
     10 C21        -19.6820   -19.3670    -6.0870 cc         1 SE3      -0.065000
     11 C22        -20.3750   -19.9300    -7.1360 cd         1 SE3      -0.251000
     12 C01        -14.3850   -17.9330    -0.7150 c3         1 SE3      -0.101600
     13 C02        -15.7400   -18.5060    -0.2350 c3         1 SE3       0.150200
     14 C03        -16.3330   -17.5710     0.8530 c3         1 SE3      -0.101600
     15 C05        -16.2080   -20.5880     1.2740 ca         1 SE3       0.294000
     16 C06        -17.6150   -20.6050     1.2150 ca         1 SE3      -0.164500
     17 C07        -18.3560   -21.3890     2.1180 ca         1 SE3      -0.063000
     18 C08        -17.6910   -22.1660     3.0810 ca         1 SE3       0.085000
     19 C24        -20.2830   -17.4170    -7.2740 cd         1 SE3      -0.285900
     20 C25        -19.6310   -17.9460    -6.1810 cc         1 SE3      -0.097000
     21 C26        -20.4060   -16.0210    -7.6690 cf         1 SE3       0.697800
     22 N04        -15.4280   -19.8370     0.3850 nu         1 SE3      -0.967200
     23 N14        -16.9390   -19.8950    -1.9300 ns         1 SE3      -0.136000
     24 N27        -20.0450   -15.1110    -6.7800 nv         1 SE3      -1.078200
     25 N28        -20.7970   -15.6720    -8.8220 n2         1 SE3      -0.848100
     26 O13        -17.2370   -17.6060    -1.9840 o          1 SE3      -0.589100
     27 S23        -20.9800   -18.7070    -8.2650 ss         1 SE3       0.316000
     28 Cl09       -18.6150   -23.1470     4.2110 cl         1 SE3      -0.215000
     29 H101       -15.7730   -22.7630     3.8840 ha         1 SE3       0.130000
     30 H111       -14.4670   -21.3760     2.2850 ha         1 SE3       0.121000
     31 H161       -18.1590   -18.5720    -3.9940 ha         1 SE3       0.148000
     32 H181       -19.8170   -22.1360    -5.7990 ha         1 SE3       0.116000
     33 H191       -18.7820   -23.5010    -4.0500 ha         1 SE3       0.114000
     34 H201       -17.4420   -22.4480    -2.2500 ha         1 SE3       0.113000
     35 H221       -20.5780   -20.9680    -7.3550 h4         1 SE3       0.150000
     36 H013       -13.6790   -17.8330     0.1190 hc         1 SE3       0.054033
     37 H011       -13.9310   -18.5840    -1.4730 hc         1 SE3       0.054033
     38 H012       -14.5190   -16.9410    -1.1630 hc         1 SE3       0.054033
     39 H033       -15.6890   -17.5430     1.7400 hc         1 SE3       0.054033
     40 H032       -16.4260   -16.5460     0.4750 hc         1 SE3       0.054033
     41 H031       -17.3310   -17.8950     1.1660 hc         1 SE3       0.054033
     42 H061       -18.1480   -20.0160     0.4760 ha         1 SE3       0.121000
     43 H071       -19.4420   -21.3970     2.0710 ha         1 SE3       0.130000
     44 H251       -19.1150   -17.3340    -5.4500 ha         1 SE3       0.137000
     45 H041       -14.4320   -20.0590     0.4420 hn         1 SE3       0.468000
     46 H141       -16.4570   -20.5900    -1.3720 hn         1 SE3       0.172000
     47 H272       -19.9130   -15.4200    -5.8260 hn         1 SE3       0.468000
     48 H281       -20.6070   -14.6700    -8.9280 hn         1 SE3       0.375400
     49 H271       -20.3660   -14.1580    -6.8920 hn         1 SE3       0.468000
@<TRIPOS>BOND
     1     1     2 ar  
     2     1    18 ar  
     3     1    29 1   
     4     2    15 ar  
     5     2    30 1   
     6     3    13 1   
     7     3    23 1   
     8     3    26 2   
     9     4     5 ar  
    10     4     9 ar  
    11     4    23 1   
    12     5     6 ar  
    13     5    31 1   
    14     6     7 ar  
    15     6    10 1   
    16     7     8 ar  
    17     7    32 1   
    18     8     9 ar  
    19     8    33 1   
    20     9    34 1   
    21    10    11 2   
    22    10    20 1   
    23    11    27 1   
    24    11    35 1   
    25    12    13 1   
    26    12    36 1   
    27    12    37 1   
    28    12    38 1   
    29    13    14 1   
    30    13    22 1   
    31    14    39 1   
    32    14    40 1   
    33    14    41 1   
    34    15    16 ar  
    35    15    22 1   
    36    16    17 ar  
    37    16    42 1   
    38    17    18 ar  
    39    17    43 1   
    40    18    28 1   
    41    19    20 2   
    42    19    21 1   
    43    19    27 1   
    44    20    44 1   
    45    21    24 1   
    46    21    25 2   
    47    22    45 1   
    48    23    46 1   
    49    24    47 1   
    50    24    49 1   
    51    25    48 1   
@<TRIPOS>SUBSTRUCTURE
     1 SE3         1 TEMP              0 ****  ****    0 ROOT
