@<TRIPOS>MOLECULE
SE3
   49    51     1     0     0
SMALL
abcg2


@<TRIPOS>ATOM
      1 C10        -17.4350   -21.5920     3.0810 ca         1 SE3      -0.063000
      2 C11        -16.3670   -21.1710     2.3070 ca         1 SE3      -0.164500
      3 C12        -16.2790   -18.8720    -1.6350 c          1 SE3       0.600100
      4 C15        -17.1920   -20.6210    -3.1670 ca         1 SE3      -0.020000
      5 C16        -17.8740   -19.7900    -4.0560 ca         1 SE3      -0.132000
      6 C17        -18.5910   -20.3330    -5.1270 ca         1 SE3       0.017000
      7 C18        -18.6180   -21.7200    -5.3000 ca         1 SE3      -0.127000
      8 C19        -17.9340   -22.5450    -4.4160 ca         1 SE3      -0.082000
      9 C20        -17.2250   -22.0080    -3.3520 ca         1 SE3      -0.162000
     10 C21        -19.3080   -19.4400    -6.0530 cc         1 SE3      -0.065000
     11 C22        -19.5830   -19.7330    -7.3680 cd         1 SE3      -0.251000
     12 C01        -13.9240   -18.6920    -0.9210 c3         1 SE3      -0.101600
     13 C02        -15.3650   -18.7680    -0.3890 c3         1 SE3       0.150200
     14 C03        -15.6820   -17.4990     0.4080 c3         1 SE3      -0.101600
     15 C05        -16.5540   -20.3230     1.2030 ca         1 SE3       0.294000
     16 C06        -17.8600   -19.9050     0.9080 ca         1 SE3      -0.164500
     17 C07        -18.9330   -20.3220     1.6860 ca         1 SE3      -0.063000
     18 C08        -18.7180   -21.1630     2.7660 ca         1 SE3       0.085000
     19 C24        -20.4410   -17.5060    -6.7300 cd         1 SE3      -0.285900
     20 C25        -19.8080   -18.1490    -5.7000 cc         1 SE3      -0.097000
     21 C26        -21.0940   -16.1870    -6.7530 cf         1 SE3       0.697800
     22 N04        -15.4540   -19.9860     0.4220 nu         1 SE3      -0.967200
     23 N14        -16.4560   -20.1420    -2.0740 ns         1 SE3      -0.136000
     24 N27        -21.1450   -15.5250    -5.5560 nv         1 SE3      -1.078200
     25 N28        -21.5230   -15.7320    -7.8800 n2         1 SE3      -0.848100
     26 O13        -16.7360   -17.8730    -2.1780 o          1 SE3      -0.589100
     27 S23        -20.4260   -18.4740    -8.1660 ss         1 SE3       0.316000
     28 CL09       -20.0770   -21.6880     3.7470 cl         1 SE3      -0.215000
     29 H101       -17.2680   -22.2440     3.9280 ha         1 SE3       0.130000
     30 H111       -15.3650   -21.5020     2.5550 ha         1 SE3       0.121000
     31 H161       -17.8290   -18.7240    -3.9150 ha         1 SE3       0.148000
     32 H181       -19.1850   -22.1540    -6.1120 ha         1 SE3       0.116000
     33 H191       -17.9610   -23.6190    -4.5500 ha         1 SE3       0.114000
     34 H201       -16.6980   -22.6530    -2.6600 ha         1 SE3       0.113000
     35 H221       -19.3090   -20.6220    -7.9140 h4         1 SE3       0.150000
     36 H013       -13.2330   -18.5840    -0.0820 hc         1 SE3       0.054033
     37 H011       -13.6650   -19.5940    -1.4760 hc         1 SE3       0.054033
     38 H012       -13.8120   -17.8280    -1.5750 hc         1 SE3       0.054033
     39 H033       -14.9800   -17.4250     1.2400 hc         1 SE3       0.054033
     40 H032       -15.5730   -16.6190    -0.2220 hc         1 SE3       0.054033
     41 H031       -16.6940   -17.5100     0.8080 hc         1 SE3       0.054033
     42 H061       -18.0610   -19.2510     0.0730 ha         1 SE3       0.121000
     43 H071       -19.9330   -19.9880     1.4440 ha         1 SE3       0.130000
     44 H251       -19.7010   -17.7300    -4.7100 ha         1 SE3       0.137000
     45 H041       -14.5730   -20.2410     0.8430 hn         1 SE3       0.468000
     46 H141       -16.0280   -20.8440    -1.4830 hn         1 SE3       0.172000
     47 H272       -21.0770   -16.0510    -4.7000 hn         1 SE3       0.468000
     48 H281       -21.9700   -14.8240    -7.7640 hn         1 SE3       0.375400
     49 H271       -21.7280   -14.7040    -5.5050 hn         1 SE3       0.468000
@<TRIPOS>BOND
     1     1     2 ar  
     2     1    18 ar  
     3     1    29 1   
     4     2    15 ar  
     5     2    30 1   
     6     3    13 1   
     7     3    23 1   
     8     3    26 2   
     9     4     5 ar  
    10     4     9 ar  
    11     4    23 1   
    12     5     6 ar  
    13     5    31 1   
    14     6     7 ar  
    15     6    10 1   
    16     7     8 ar  
    17     7    32 1   
    18     8     9 ar  
    19     8    33 1   
    20     9    34 1   
    21    10    11 2   
    22    10    20 1   
    23    11    27 1   
    24    11    35 1   
    25    12    13 1   
    26    12    36 1   
    27    12    37 1   
    28    12    38 1   
    29    13    14 1   
    30    13    22 1   
    31    14    39 1   
    32    14    40 1   
    33    14    41 1   
    34    15    16 ar  
    35    15    22 1   
    36    16    17 ar  
    37    16    42 1   
    38    17    18 ar  
    39    17    43 1   
    40    18    28 1   
    41    19    20 2   
    42    19    21 1   
    43    19    27 1   
    44    20    44 1   
    45    21    24 1   
    46    21    25 2   
    47    22    45 1   
    48    23    46 1   
    49    24    47 1   
    50    24    49 1   
    51    25    48 1   
@<TRIPOS>SUBSTRUCTURE
     1 SE3         1 TEMP              0 ****  ****    0 ROOT
