@<TRIPOS>MOLECULE
SE4
    5     4     1     0     0
SMALL
No Charge or Current Charge


@<TRIPOS>ATOM
      1 SE          34.9620    14.4910    18.9790 s6         1 SE4       0.939800
      2 O1          36.0850    15.0300    19.7470 o          1 SE4      -0.735200
      3 O2          33.8490    15.4400    19.0110 o          1 SE4      -0.735200
      4 O3          34.5370    13.2200    19.5630 o          1 SE4      -0.735200
      5 O4          35.3790    14.2760    17.5930 o          1 SE4      -0.735200
@<TRIPOS>BOND
     1     1     2 1   
     2     1     3 1   
     3     1     4 1   
     4     1     5 1   
@<TRIPOS>SUBSTRUCTURE
     1 SE4         1 TEMP              0 ****  ****    0 ROOT
