@<TRIPOS>MOLECULE
SE4
    5     4     1     0     0
SMALL
abcg2


@<TRIPOS>ATOM
      1 SE          34.9620    14.4910    18.9780 s6         1 SE4       0.939800
      2 O1          36.2120    15.0910    19.8340 o          1 SE4      -0.735200
      3 O2          33.7230    15.5480    19.0150 o          1 SE4      -0.735200
      4 O3          34.4880    13.0750    19.6300 o          1 SE4      -0.735200
      5 O4          35.4270    14.2520    17.4360 o          1 SE4      -0.735200
@<TRIPOS>BOND
     1     1     2 1   
     2     1     3 1   
     3     1     4 1   
     4     1     5 1   
@<TRIPOS>SUBSTRUCTURE
     1 SE4         1 TEMP              0 ****  ****    0 ROOT
