@<TRIPOS>MOLECULE
SE5
   28    29     1     0     0
SMALL
No Charge or Current Charge


@<TRIPOS>ATOM
      1 O1          -6.3670     0.1570     0.2990 o          1 SE5      -0.723500
      2 C1          -5.3010     0.7500     0.2100 c          1 SE5       0.732600
      3 O2          -5.2040     1.9630     0.3320 o          1 SE5      -0.723500
      4 C2          -4.0800    -0.0550    -0.0610 cc         1 SE5      -0.198600
      5 C3          -2.8050     0.4380    -0.1930 cd         1 SE5      -0.186000
      6 C4          -1.9060    -0.6210    -0.4430 cd         1 SE5      -0.196300
      7 C5          -0.4180    -0.4760    -0.6470 c3         1 SE5       0.024900
      8 C6           0.3350    -0.1990     0.6710 c3         1 SE5      -0.042100
      9 C7           1.8370    -0.0610     0.4590 ca         1 SE5      -0.053300
     10 C8           2.6710    -1.1940     0.5360 ca         1 SE5      -0.104000
     11 C9           2.4020     1.1980     0.1780 ca         1 SE5      -0.104000
     12 C10          3.7880     1.3240    -0.0220 ca         1 SE5      -0.107000
     13 C11          4.6140     0.1920     0.0580 ca         1 SE5       0.107000
     14 C12         -2.6250    -1.7860    -0.4710 cc         1 SE5      -0.244000
     15 Cl1          6.3480     0.3500    -0.1920 cl         1 SE5      -0.232000
     16 C13          4.0580    -1.0670     0.3360 ca         1 SE5      -0.107000
     17 N1          -3.9570    -1.4360    -0.2350 na         1 SE5      -0.080000
     18 H2          -2.5310     1.4870    -0.1150 ha         1 SE5       0.126000
     19 H3          -0.0120    -1.3870    -1.1050 hc         1 SE5       0.028200
     20 H4          -0.2180     0.3410    -1.3510 hc         1 SE5       0.028200
     21 H5          -0.0670     0.7140     1.1280 hc         1 SE5       0.056200
     22 H6           0.1250    -1.0110     1.3780 hc         1 SE5       0.056200
     23 H7           2.2460    -2.1730     0.7490 ha         1 SE5       0.119500
     24 H8           1.7660     2.0790     0.1120 ha         1 SE5       0.119500
     25 H9           4.2210     2.2980    -0.2380 ha         1 SE5       0.120000
     26 H10         -2.3100    -2.8100    -0.6330 h4         1 SE5       0.114000
     27 H11          4.6990    -1.9430     0.3960 ha         1 SE5       0.120000
     28 H12         -4.7360    -2.0870    -0.1940 hn         1 SE5       0.350000
@<TRIPOS>BOND
     1     1     2 1   
     2     2     3 1   
     3     2     4 1   
     4     4     5 2   
     5     4    17 1   
     6     5     6 1   
     7     5    18 1   
     8     6     7 1   
     9     6    14 2   
    10     7     8 1   
    11     7    19 1   
    12     7    20 1   
    13     8     9 1   
    14     8    21 1   
    15     8    22 1   
    16     9    10 ar  
    17     9    11 ar  
    18    10    16 ar  
    19    10    23 1   
    20    11    12 ar  
    21    11    24 1   
    22    12    13 ar  
    23    12    25 1   
    24    13    15 1   
    25    13    16 ar  
    26    14    17 1   
    27    14    26 1   
    28    16    27 1   
    29    17    28 1   
@<TRIPOS>SUBSTRUCTURE
     1 SE5         1 TEMP              0 ****  ****    0 ROOT
