@<TRIPOS>MOLECULE
SE5
   28    29     1     0     0
SMALL
bcc


@<TRIPOS>ATOM
      1 O1          -6.3470    -0.1610     0.2810 o          1 SE5      -0.828800
      2 C1          -5.3730     0.6160     0.1870 c          1 SE5       0.943200
      3 O2          -5.3830     1.8590     0.2760 o          1 SE5      -0.828800
      4 C2          -4.0420    -0.0190    -0.0640 cc         1 SE5      -0.147900
      5 C3          -2.7870     0.5320    -0.2130 cd         1 SE5      -0.204000
      6 C4          -1.8700    -0.5230    -0.4570 cd         1 SE5      -0.196300
      7 C5          -0.3910    -0.4050    -0.6400 c3         1 SE5       0.024900
      8 C6           0.3520    -0.1790     0.6850 c3         1 SE5      -0.042100
      9 C7           1.8360    -0.0660     0.4860 ca         1 SE5      -0.053300
     10 C8           2.6570    -1.1890     0.5510 ca         1 SE5      -0.122000
     11 C9           2.4250     1.1610     0.1860 ca         1 SE5      -0.122000
     12 C10          3.7890     1.2720    -0.0390 ca         1 SE5      -0.125000
     13 C11          4.5780     0.1350     0.0330 ca         1 SE5       0.015400
     14 C12         -2.6080    -1.6880    -0.4430 cc         1 SE5      -0.211300
     15 CL1          6.2880     0.2620    -0.2400 cl         1 SE5      -0.140400
     16 C13          4.0230    -1.1000     0.3270 ca         1 SE5      -0.125000
     17 N1          -3.9040    -1.3660    -0.2080 na         1 SE5      -0.131100
     18 H2          -2.5520     1.5850    -0.1600 ha         1 SE5       0.144000
     19 H3          -0.0010    -1.3100    -1.1140 hc         1 SE5       0.028200
     20 H4          -0.1610     0.4210    -1.3200 hc         1 SE5       0.028200
     21 H5          -0.0300     0.7290     1.1590 hc         1 SE5       0.056200
     22 H6           0.1290    -1.0060     1.3630 hc         1 SE5       0.056200
     23 H7           2.2280    -2.1550     0.7880 ha         1 SE5       0.137500
     24 H8           1.8100     2.0510     0.1330 ha         1 SE5       0.137500
     25 H9           4.2290     2.2350    -0.2640 ha         1 SE5       0.138000
     26 H10         -2.2960    -2.7100    -0.5870 h4         1 SE5       0.132000
     27 H11          4.6460    -1.9830     0.3870 ha         1 SE5       0.138000
     28 H12         -4.6730    -2.0140    -0.1500 hn         1 SE5       0.299700
@<TRIPOS>BOND
     1     1     2 1   
     2     2     3 1   
     3     2     4 1   
     4     4     5 2   
     5     4    17 1   
     6     5     6 1   
     7     5    18 1   
     8     6     7 1   
     9     6    14 2   
    10     7     8 1   
    11     7    19 1   
    12     7    20 1   
    13     8     9 1   
    14     8    21 1   
    15     8    22 1   
    16     9    10 ar  
    17     9    11 ar  
    18    10    16 ar  
    19    10    23 1   
    20    11    12 ar  
    21    11    24 1   
    22    12    13 ar  
    23    12    25 1   
    24    13    15 1   
    25    13    16 ar  
    26    14    17 1   
    27    14    26 1   
    28    16    27 1   
    29    17    28 1   
@<TRIPOS>SUBSTRUCTURE
     1 SE5         1 TEMP              0 ****  ****    0 ROOT
