@<TRIPOS>MOLECULE
SE7
   15    14     1     0     0
SMALL
No Charge or Current Charge


@<TRIPOS>ATOM
      1 N            1.2900     1.6700     0.6950 n8         1 SE7      -0.875800
      2 CA           1.3390     0.1840     0.3530 c3         1 SE7       0.016500
      3 C            2.6720    -0.3580    -0.2930 c          1 SE7       0.942600
      4 O            2.9130    -0.0870    -1.4660 o          1 SE7      -0.818800
      5 CB           0.1480    -0.2490    -0.5420 c3         1 SE7       0.150900
      6 SEG         -1.4910    -0.0170     0.3170 s4         1 SE7       0.060700
      7 OD1         -1.5420    -0.9850     1.4720 o          1 SE7      -0.426200
      8 OD2         -2.3370    -0.6730    -0.9990 oh         1 SE7      -0.514800
      9 OXT          3.4360    -1.0210     0.4020 o          1 SE7      -0.818800
     10 H            1.4110     2.2250    -0.1600 hn         1 SE7       0.318300
     11 H2           0.3560     1.9150     1.0410 hn         1 SE7       0.318300
     12 HA           1.2360    -0.3640     1.2990 h1         1 SE7       0.076700
     13 HB2          0.1430     0.3330    -1.4720 h1         1 SE7       0.085700
     14 HB3          0.2400    -1.3130    -0.7940 h1         1 SE7       0.085700
     15 HD2         -2.3030    -0.0150    -1.7260 ho         1 SE7       0.400000
@<TRIPOS>BOND
     1     1     2 1   
     2     1    10 1   
     3     1    11 1   
     4     2     3 1   
     5     2     5 1   
     6     2    12 1   
     7     3     4 1   
     8     3     9 1   
     9     5     6 1   
    10     5    13 1   
    11     5    14 1   
    12     6     7 2   
    13     6     8 1   
    14     8    15 1   
@<TRIPOS>SUBSTRUCTURE
     1 SE7         1 TEMP              0 ****  ****    0 ROOT
