@<TRIPOS>MOLECULE
SE7
   15    14     1     0     0
SMALL
bcc


@<TRIPOS>ATOM
      1 N            1.4280     1.6650     0.5930 n8         1 SE7      -0.875800
      2 CA           1.3490     0.2350     0.3780 c3         1 SE7       0.016500
      3 C            2.6970    -0.3320    -0.1500 c          1 SE7       0.942600
      4 O            3.5330     0.4860    -0.5700 o          1 SE7      -0.818800
      5 CB           0.2640    -0.2270    -0.6020 c3         1 SE7       0.150900
      6 SEG         -1.5270     0.1710     0.0620 s4         1 SE7       0.060700
      7 OD1         -1.6040    -0.6990     1.4290 o          1 SE7      -0.426200
      8 OD2         -2.2780    -0.8300    -1.2090 oh         1 SE7      -0.514800
      9 OXT          2.8000    -1.5740    -0.1290 o          1 SE7      -0.818800
     10 H            1.6680     2.1330    -0.2700 hn         1 SE7       0.318300
     11 H2           0.5500     2.0550     0.9110 hn         1 SE7       0.318300
     12 HA           1.1570    -0.2440     1.3440 h1         1 SE7       0.076700
     13 HB2          0.3720     0.2670    -1.5730 h1         1 SE7       0.085700
     14 HB3          0.2990    -1.3100    -0.7470 h1         1 SE7       0.085700
     15 HD2         -3.1950    -0.5490    -1.3410 ho         1 SE7       0.400000
@<TRIPOS>BOND
     1     1     2 1   
     2     1    10 1   
     3     1    11 1   
     4     2     3 1   
     5     2     5 1   
     6     2    12 1   
     7     3     4 1   
     8     3     9 1   
     9     5     6 1   
    10     5    13 1   
    11     5    14 1   
    12     6     7 2   
    13     6     8 1   
    14     8    15 1   
@<TRIPOS>SUBSTRUCTURE
     1 SE7         1 TEMP              0 ****  ****    0 ROOT
