@<TRIPOS>MOLECULE
SE8
   52    51     1     0     0
SMALL
abcg2


@<TRIPOS>ATOM
      1 C1           7.5690    -2.5190    -2.3380 c          1 SE8       0.697000
      2 C2           6.6470    -2.1350    -1.1530 c3         1 SE8      -0.008500
      3 C3           6.1590    -0.6980    -1.3510 c3         1 SE8       0.126000
      4 N4           5.3280    -0.3090    -0.2370 ns         1 SE8      -0.508900
      5 C5           4.4520     0.7030    -0.2670 c          1 SE8       0.604100
      6 C6           3.7150     0.9580     1.0290 c3         1 SE8      -0.165400
      7 C7           2.2180     0.6380     0.9080 c3         1 SE8       0.034000
      8 C8           1.5870     0.8000     2.3040 c3         1 SE8      -0.166400
      9 C9           0.0710     0.8230     2.3370 c          1 SE8       0.621100
     10 N10         -0.5430    -0.0960     1.5710 ns         1 SE8      -0.493900
     11 C11         -1.9670    -0.0960     1.3430 c3         1 SE8       0.089000
     12 C12         -2.3610     0.9000     0.2500 c3         1 SE8       0.065000
     13 N13         -3.7880     0.9420     0.0350 ns         1 SE8      -0.509900
     14 C14         -4.4460     0.0810    -0.7600 c          1 SE8       0.588100
     15 C15         -5.9330     0.3410    -0.8870 c3         1 SE8      -0.150400
     16 C16         -6.7270    -0.9330    -1.1080 c3         1 SE8      -0.180400
     17 C17         -8.1930    -0.6930    -1.3460 c          1 SE8       0.429100
     18 C18         -9.0990    -1.9440    -1.5470 c          1 SE8       0.645000
     19 O19          7.0400    -2.4730    -3.4680 o          1 SE8      -0.740000
     20 O20          8.7470    -2.8250    -2.0770 o          1 SE8      -0.740000
     21 N21          7.2230    -2.2720     0.1750 n8         1 SE8      -1.009200
     22 O22          4.2480     1.3790    -1.2700 o          1 SE8      -0.594100
     23 C23          1.5230     1.6190    -0.0780 c          1 SE8       0.744000
     24 O24          1.0100     1.1470    -1.1020 o          1 SE8      -0.702000
     25 O25          1.5280     2.8080     0.2950 o          1 SE8      -0.702000
     26 O26          2.0480    -0.6820     0.4230 oh         1 SE8      -0.625000
     27 O27         -0.5430     1.6070     3.0500 o          1 SE8      -0.664100
     28 O28         -3.8820    -0.8210    -1.3660 o          1 SE8      -0.609100
     29 O29         -8.6650     0.4200    -1.3840 o          1 SE8      -0.580100
     30 O30         -8.5260    -3.0420    -1.4400 o          1 SE8      -0.706000
     31 O31        -10.2900    -1.7090    -1.7910 o          1 SE8      -0.706000
     32 H2           5.7650    -2.7840    -1.1920 h1         1 SE8       0.049700
     33 H3           7.0180    -0.0210    -1.4400 h1         1 SE8       0.047700
     34 H3A          5.5940    -0.6280    -2.2780 h1         1 SE8       0.047700
     35 HN4          5.5370    -0.7740     0.6340 hn         1 SE8       0.309500
     36 H6           4.1480     0.3710     1.8450 hc         1 SE8       0.038200
     37 H6A          3.8350     2.0080     1.2960 hc         1 SE8       0.038200
     38 H8           1.9380    -0.0080     2.9580 hc         1 SE8       0.043700
     39 H8A          1.9280     1.7300     2.7540 hc         1 SE8       0.043700
     40 HN10         0.0360    -0.6430     0.9500 hn         1 SE8       0.352500
     41 H11         -2.2680    -1.1020     1.0510 h1         1 SE8       0.041200
     42 H11A        -2.4870     0.1450     2.2700 h1         1 SE8       0.041200
     43 H12         -2.0340     1.9010     0.5330 h1         1 SE8       0.084200
     44 H12A        -1.8510     0.6470    -0.6790 h1         1 SE8       0.084200
     45 HN13        -4.3170     1.6410     0.5300 hn         1 SE8       0.298500
     46 H15         -6.3000     0.8750    -0.0090 hc         1 SE8       0.048700
     47 H15A        -6.0690     1.0210    -1.7340 hc         1 SE8       0.048700
     48 H16         -6.3330    -1.4940    -1.9600 hc         1 SE8       0.078200
     49 H16A        -6.6250    -1.6120    -0.2570 hc         1 SE8       0.078200
     50 HN21         7.2990    -3.2550     0.4040 hn         1 SE8       0.378000
     51 HN2A         8.1800    -1.9380     0.1450 hn         1 SE8       0.378000
     52 HO26         2.5020    -1.2860     1.0210 ho         1 SE8       0.395000
@<TRIPOS>BOND
     1     1     2 1   
     2     1    19 1   
     3     1    20 1   
     4     2     3 1   
     5     2    21 1   
     6     2    32 1   
     7     3     4 1   
     8     3    33 1   
     9     3    34 1   
    10     4     5 1   
    11     4    35 1   
    12     5     6 1   
    13     5    22 2   
    14     6     7 1   
    15     6    36 1   
    16     6    37 1   
    17     7     8 1   
    18     7    23 1   
    19     7    26 1   
    20     8     9 1   
    21     8    38 1   
    22     8    39 1   
    23     9    10 1   
    24     9    27 2   
    25    10    11 1   
    26    10    40 1   
    27    11    12 1   
    28    11    41 1   
    29    11    42 1   
    30    12    13 1   
    31    12    43 1   
    32    12    44 1   
    33    13    14 1   
    34    13    45 1   
    35    14    15 1   
    36    14    28 2   
    37    15    16 1   
    38    15    46 1   
    39    15    47 1   
    40    16    17 1   
    41    16    48 1   
    42    16    49 1   
    43    17    18 1   
    44    17    29 2   
    45    18    30 1   
    46    18    31 1   
    47    21    50 1   
    48    21    51 1   
    49    23    24 1   
    50    23    25 1   
    51    26    52 1   
@<TRIPOS>SUBSTRUCTURE
     1 SE8         1 TEMP              0 ****  ****    0 ROOT
