@<TRIPOS>MOLECULE
SE8
   52    51     1     0     0
SMALL
No Charge or Current Charge


@<TRIPOS>ATOM
      1 C1           7.6040    -1.9960    -2.7090 c          1 SE8       0.697000
      2 C2           6.4950    -1.9200    -1.5890 c3         1 SE8      -0.008500
      3 C3           6.5090    -0.5030    -0.9600 c3         1 SE8       0.126000
      4 N4           5.4640    -0.3520     0.0530 ns         1 SE8      -0.508900
      5 C5           4.9600     0.8480     0.4950 c          1 SE8       0.604100
      6 C6           3.8880     0.7380     1.5910 c3         1 SE8      -0.165400
      7 C7           2.4590     1.1090     1.0870 c3         1 SE8       0.034000
      8 C8           1.4260     0.8570     2.2270 c3         1 SE8      -0.166400
      9 C9          -0.0220     1.1200     1.7860 c          1 SE8       0.621100
     10 N10         -0.7850    -0.0080     1.5830 ns         1 SE8      -0.493900
     11 C11         -2.1870    -0.0090     1.1550 c3         1 SE8       0.089000
     12 C12         -2.3600     0.4140    -0.3210 c3         1 SE8       0.065000
     13 N13         -3.7670     0.4070    -0.7510 ns         1 SE8      -0.509900
     14 C14         -4.5090    -0.7280    -0.9940 c          1 SE8       0.588100
     15 C15         -5.9630    -0.4760    -1.4150 c3         1 SE8      -0.150400
     16 C16         -6.9660    -0.8290    -0.2820 c3         1 SE8      -0.180400
     17 C17         -8.4240    -0.5740    -0.7160 c          1 SE8       0.429100
     18 C18         -9.2710    -1.8430    -1.2690 c          1 SE8       0.645000
     19 O19          7.2450    -2.0790    -3.8760 o          1 SE8      -0.740000
     20 O20          8.7760    -2.0790    -2.3650 o          1 SE8      -0.740000
     21 N21          6.5260    -3.0080    -0.5290 n8         1 SE8      -1.009200
     22 O22          5.3860     1.9190     0.0850 o          1 SE8      -0.594100
     23 C23          2.4160     2.6460     0.6410 c          1 SE8       0.744000
     24 O24          2.1130     2.9260    -0.5150 o          1 SE8      -0.702000
     25 O25          2.6990     3.5020     1.4710 o          1 SE8      -0.702000
     26 O26          2.1360     0.1840     0.0170 oh         1 SE8      -0.625000
     27 O27         -0.4900     2.2450     1.6820 o          1 SE8      -0.664100
     28 O28         -4.0330    -1.8500    -0.9100 o          1 SE8      -0.609100
     29 O29         -8.9040     0.5620    -0.6430 o          1 SE8      -0.580100
     30 O30         -9.1220    -2.9340    -0.7220 o          1 SE8      -0.706000
     31 O31        -10.0470    -1.6670    -2.2050 o          1 SE8      -0.706000
     32 H2           5.5320    -2.0220    -2.1080 h1         1 SE8       0.049700
     33 H3           7.4840    -0.3120    -0.4910 h1         1 SE8       0.047700
     34 H3A          6.3570     0.2440    -1.7510 h1         1 SE8       0.047700
     35 HN4          5.0890    -1.1990     0.4630 hn         1 SE8       0.309500
     36 H6           3.8670    -0.2900     1.9750 hc         1 SE8       0.038200
     37 H6A          4.1580     1.4150     2.4100 hc         1 SE8       0.038200
     38 H8           1.5220    -0.1850     2.5570 hc         1 SE8       0.043700
     39 H8A          1.6610     1.5220     3.0670 hc         1 SE8       0.043700
     40 HN10        -0.3170    -0.8980     1.7110 hn         1 SE8       0.352500
     41 H11         -2.5900    -1.0200     1.2960 h1         1 SE8       0.041200
     42 H11A        -2.7550     0.6740     1.8010 h1         1 SE8       0.041200
     43 H12         -1.9560     1.4260    -0.4610 h1         1 SE8       0.084200
     44 H12A        -1.7860    -0.2660    -0.9640 h1         1 SE8       0.084200
     45 HN13        -4.2450     1.2950    -0.8580 hn         1 SE8       0.298500
     46 H15         -6.0980     0.5810    -1.6780 hc         1 SE8       0.048700
     47 H15A        -6.1900    -1.1030    -2.2850 hc         1 SE8       0.048700
     48 H16         -6.8340    -1.8910    -0.0450 hc         1 SE8       0.078200
     49 H16A        -6.7390    -0.2130     0.5980 hc         1 SE8       0.078200
     50 HN21         6.4640    -3.9250    -0.9880 hn         1 SE8       0.378000
     51 HN2A         7.4630    -3.0220    -0.1070 hn         1 SE8       0.378000
     52 HO26         2.3030    -0.7230     0.3460 ho         1 SE8       0.395000
@<TRIPOS>BOND
     1     1     2 1   
     2     1    19 1   
     3     1    20 1   
     4     2     3 1   
     5     2    21 1   
     6     2    32 1   
     7     3     4 1   
     8     3    33 1   
     9     3    34 1   
    10     4     5 1   
    11     4    35 1   
    12     5     6 1   
    13     5    22 2   
    14     6     7 1   
    15     6    36 1   
    16     6    37 1   
    17     7     8 1   
    18     7    23 1   
    19     7    26 1   
    20     8     9 1   
    21     8    38 1   
    22     8    39 1   
    23     9    10 1   
    24     9    27 2   
    25    10    11 1   
    26    10    40 1   
    27    11    12 1   
    28    11    41 1   
    29    11    42 1   
    30    12    13 1   
    31    12    43 1   
    32    12    44 1   
    33    13    14 1   
    34    13    45 1   
    35    14    15 1   
    36    14    28 2   
    37    15    16 1   
    38    15    46 1   
    39    15    47 1   
    40    16    17 1   
    41    16    48 1   
    42    16    49 1   
    43    17    18 1   
    44    17    29 2   
    45    18    30 1   
    46    18    31 1   
    47    21    50 1   
    48    21    51 1   
    49    23    24 1   
    50    23    25 1   
    51    26    52 1   
@<TRIPOS>SUBSTRUCTURE
     1 SE8         1 TEMP              0 ****  ****    0 ROOT
