@<TRIPOS>MOLECULE
SE9
   48    50     1     0     0
SMALL
No Charge or Current Charge


@<TRIPOS>ATOM
      1 C11          4.7130    30.4440    16.8520 cc         1 SE9      -0.068600
      2 C12          4.9210    29.3670    17.7090 cd         1 SE9       0.093900
      3 C01          5.1360    32.0460     8.9360 c3         1 SE9       0.160900
      4 C03          4.3370    32.8500    11.1140 ca         1 SE9       0.581300
      5 C04          3.2700    32.9640    12.0190 ca         1 SE9      -0.186000
      6 C05          3.4640    33.6090    13.2500 ca         1 SE9      -0.026300
      7 C06          2.3320    33.7320    14.2630 c3         1 SE9      -0.053100
      8 C07          2.0440    32.4050    14.9930 c3         1 SE9       0.108000
      9 C09          3.3120    30.7820    16.4440 c          1 SE9       0.628300
     10 C14          6.2970    28.9830    18.1480 c          1 SE9       0.550200
     11 C17          7.0270    30.8290    16.7740 cd         1 SE9       0.519500
     12 C19          8.1820    31.6190    16.2890 ca         1 SE9      -0.141900
     13 C20          9.4580    31.0270    16.1490 ca         1 SE9      -0.066000
     14 C21         10.5380    31.7720    15.6510 ca         1 SE9      -0.115000
     15 C22         10.3620    33.1110    15.2730 ca         1 SE9      -0.041000
     16 C23          9.0960    33.7190    15.3810 ca         1 SE9      -0.194300
     17 C24          8.0110    32.9640    15.8810 ca         1 SE9      -0.015000
     18 C25          8.9290    35.1820    14.9540 c3         1 SE9       0.345300
     19 C29          4.7460    34.1160    13.5170 ca         1 SE9      -0.207000
     20 C30          5.7610    33.9600    12.5600 ca         1 SE9       0.380900
     21 F26          9.7350    35.9990    15.6690 f          1 SE9      -0.109667
     22 F27          7.6680    35.6440    15.1110 f          1 SE9      -0.109667
     23 F28          9.2480    35.3550    13.6520 f          1 SE9      -0.109667
     24 N08          3.2560    31.8530    15.5930 ns         1 SE9      -0.461900
     25 N16          7.2600    29.7830    17.6180 ns         1 SE9      -0.411400
     26 N18          5.8030    31.1900    16.3830 nc         1 SE9      -0.610300
     27 N31          5.5680    33.3400    11.3760 nb         1 SE9      -0.744000
     28 O10          2.3120    30.1760    16.8180 o          1 SE9      -0.660100
     29 O13          3.9070    28.5990    18.2030 oh         1 SE9      -0.505100
     30 O15          6.5780    28.0590    18.9010 o          1 SE9      -0.501000
     31 H1           4.7500    31.5120     8.0580 h1         1 SE9       0.048367
     32 H2           5.5160    33.0200     8.6010 h1         1 SE9       0.048367
     33 H3           5.9740    31.4650     9.3440 h1         1 SE9       0.048367
     34 H4           2.3030    32.5470    11.7550 ha         1 SE9       0.137000
     35 H5           2.5720    34.4990    15.0100 hc         1 SE9       0.066200
     36 H6           1.4150    34.0690    13.7660 hc         1 SE9       0.066200
     37 H7           1.2920    32.5690    15.7770 h1         1 SE9       0.060700
     38 H8           1.6420    31.6730    14.2790 h1         1 SE9       0.060700
     39 H9           9.6230    29.9840    16.4120 ha         1 SE9       0.121000
     40 H10         11.5170    31.3070    15.5520 ha         1 SE9       0.130000
     41 H11         11.2100    33.6750    14.8880 ha         1 SE9       0.137000
     42 H12          7.0300    33.4260    15.9690 ha         1 SE9       0.149000
     43 H13          4.9640    34.6250    14.4520 ha         1 SE9       0.126000
     44 H14          6.7630    34.3450    12.7470 h4         1 SE9       0.025100
     45 H15          4.1570    32.2500    15.3530 hn         1 SE9       0.349500
     46 H16          8.2040    29.5760    17.9040 hn         1 SE9       0.335500
     47 H17          3.0720    28.9840    17.8210 ho         1 SE9       0.530000
     48 O02          4.0960    32.2090     9.9210 os         1 SE9      -0.470300
@<TRIPOS>BOND
     1     1     2 2   
     2     1     9 1   
     3     1    26 1   
     4     2    10 1   
     5     2    29 1   
     6     3    31 1   
     7     3    32 1   
     8     3    33 1   
     9     3    48 1   
    10     4     5 ar  
    11     4    27 ar  
    12     4    48 1   
    13     5     6 ar  
    14     5    34 1   
    15     6     7 1   
    16     6    19 ar  
    17     7     8 1   
    18     7    35 1   
    19     7    36 1   
    20     8    24 1   
    21     8    37 1   
    22     8    38 1   
    23     9    24 1   
    24     9    28 2   
    25    10    25 1   
    26    10    30 2   
    27    11    12 1   
    28    11    25 1   
    29    11    26 2   
    30    12    13 ar  
    31    12    17 ar  
    32    13    14 ar  
    33    13    39 1   
    34    14    15 ar  
    35    14    40 1   
    36    15    16 ar  
    37    15    41 1   
    38    16    17 ar  
    39    16    18 1   
    40    17    42 1   
    41    18    21 1   
    42    18    22 1   
    43    18    23 1   
    44    19    20 ar  
    45    19    43 1   
    46    20    27 ar  
    47    20    44 1   
    48    24    45 1   
    49    25    46 1   
    50    29    47 1   
@<TRIPOS>SUBSTRUCTURE
     1 SE9         1 TEMP              0 ****  ****    0 ROOT
