@<TRIPOS>MOLECULE
SE9
   48    50     1     0     0
SMALL
abcg2


@<TRIPOS>ATOM
      1 C11          4.7370    30.3630    16.8990 cc         1 SE9      -0.068600
      2 C12          4.8680    29.4110    17.8810 cd         1 SE9       0.093900
      3 C01          5.7280    32.3870     9.3930 c3         1 SE9       0.160900
      4 C03          4.5700    33.0770    11.3620 ca         1 SE9       0.581300
      5 C04          3.5420    32.8500    12.2860 ca         1 SE9      -0.186000
      6 C05          3.3720    33.7460    13.3270 ca         1 SE9      -0.026300
      7 C06          2.2710    33.5810    14.3480 c3         1 SE9      -0.053100
      8 C07          2.1020    32.1600    14.8770 c3         1 SE9       0.108000
      9 C09          3.3810    30.7080    16.3930 c          1 SE9       0.628300
     10 C14          6.1980    29.0970    18.3870 c          1 SE9       0.550200
     11 C17          6.9930    30.7410    16.7690 cd         1 SE9       0.519500
     12 C19          8.1650    31.4190    16.1790 ca         1 SE9      -0.141900
     13 C20          9.4350    30.8350    16.1690 ca         1 SE9      -0.066000
     14 C21         10.5110    31.5110    15.6110 ca         1 SE9      -0.115000
     15 C22         10.3380    32.7750    15.0600 ca         1 SE9      -0.041000
     16 C23          9.0720    33.3540    15.0630 ca         1 SE9      -0.194300
     17 C24          7.9880    32.6810    15.6090 ca         1 SE9      -0.015000
     18 C25          8.8510    34.6990    14.4310 c3         1 SE9       0.345300
     19 C29          4.2420    34.8410    13.3930 ca         1 SE9      -0.207000
     20 C30          5.2090    34.9890    12.4180 ca         1 SE9       0.380900
     21 F26          9.9800    35.4320    14.3690 f          1 SE9      -0.109667
     22 F27          7.9380    35.4380    15.0980 f          1 SE9      -0.109667
     23 F28          8.3940    34.5920    13.1580 f          1 SE9      -0.109667
     24 N08          3.3300    31.6940    15.5010 ns         1 SE9      -0.461900
     25 N16          7.1960    29.8290    17.7690 ns         1 SE9      -0.411400
     26 N18          5.8010    31.0150    16.3430 nc         1 SE9      -0.610300
     27 N31          5.3840    34.1200    11.4090 nb         1 SE9      -0.744000
     28 O10          2.3720    30.1070    16.8210 o          1 SE9      -0.660100
     29 O13          3.8490    28.7470    18.4270 oh         1 SE9      -0.505100
     30 O15          6.4410    28.2870    19.2740 o          1 SE9      -0.501000
     31 H1           5.6620    31.5390     8.7160 h1         1 SE9       0.048367
     32 H2           5.5460    33.3160     8.8520 h1         1 SE9       0.048367
     33 H3           6.7140    32.4280     9.8540 h1         1 SE9       0.048367
     34 H4           2.9090    31.9790    12.1680 ha         1 SE9       0.137000
     35 H5           2.4490    34.2610    15.1820 hc         1 SE9       0.066200
     36 H6           1.3210    33.8760    13.8960 hc         1 SE9       0.066200
     37 H7           1.3060    32.1380    15.6200 h1         1 SE9       0.060700
     38 H8           1.8110    31.4760    14.0780 h1         1 SE9       0.060700
     39 H9           9.5890    29.8450    16.5760 ha         1 SE9       0.121000
     40 H10         11.4890    31.0500    15.6020 ha         1 SE9       0.130000
     41 H11         11.1800    33.3020    14.6330 ha         1 SE9       0.137000
     42 H12          7.0060    33.1320    15.6160 ha         1 SE9       0.149000
     43 H13          4.1570    35.5670    14.1920 ha         1 SE9       0.126000
     44 H14          5.8780    35.8410    12.4340 h4         1 SE9       0.025100
     45 H15          4.2200    32.0720    15.2040 hn         1 SE9       0.349500
     46 H16          8.1320    29.6720    18.1200 hn         1 SE9       0.335500
     47 H17          3.0360    29.0720    17.9450 ho         1 SE9       0.530000
     48 O02          4.7080    32.1640    10.3770 os         1 SE9      -0.470300
@<TRIPOS>BOND
     1     1     2 2   
     2     1     9 1   
     3     1    26 1   
     4     2    10 1   
     5     2    29 1   
     6     3    31 1   
     7     3    32 1   
     8     3    33 1   
     9     3    48 1   
    10     4     5 ar  
    11     4    27 ar  
    12     4    48 1   
    13     5     6 ar  
    14     5    34 1   
    15     6     7 1   
    16     6    19 ar  
    17     7     8 1   
    18     7    35 1   
    19     7    36 1   
    20     8    24 1   
    21     8    37 1   
    22     8    38 1   
    23     9    24 1   
    24     9    28 2   
    25    10    25 1   
    26    10    30 2   
    27    11    12 1   
    28    11    25 1   
    29    11    26 2   
    30    12    13 ar  
    31    12    17 ar  
    32    13    14 ar  
    33    13    39 1   
    34    14    15 ar  
    35    14    40 1   
    36    15    16 ar  
    37    15    41 1   
    38    16    17 ar  
    39    16    18 1   
    40    17    42 1   
    41    18    21 1   
    42    18    22 1   
    43    18    23 1   
    44    19    20 ar  
    45    19    43 1   
    46    20    27 ar  
    47    20    44 1   
    48    24    45 1   
    49    25    46 1   
    50    29    47 1   
@<TRIPOS>SUBSTRUCTURE
     1 SE9         1 TEMP              0 ****  ****    0 ROOT
