@<TRIPOS>MOLECULE
SEB
   29    29     1     0     0
SMALL
No Charge or Current Charge


@<TRIPOS>ATOM
      1 C           17.4500    22.6890    -3.1500 c          1 SEB       0.948600
      2 N           15.0200    21.9160    -2.3610 n8         1 SEB      -0.881800
      3 CI2         21.3300    22.3200    -1.4650 ca         1 SEB      -0.124500
      4 CH2         20.2930    22.8860    -0.7020 ca         1 SEB      -0.102500
      5 CJ          22.0370    21.2090    -0.9770 ca         1 SEB      -0.127000
      6 CI1         21.7080    20.6640     0.2760 ca         1 SEB      -0.124500
      7 CH1         20.6710    21.2300     1.0380 ca         1 SEB      -0.102500
      8 CZ          19.9510    22.3390     0.5510 ca         1 SEB      -0.060300
      9 CE          18.8340    22.9620     1.3880 c3         1 SEB      -0.181300
     10 OD2         17.5220    20.6610     1.8880 o          1 SEB      -0.621300
     11 OD1         16.2540    22.8610     2.1030 o          1 SEB      -0.621300
     12 SD          17.2710    22.0370     1.4310 s6         1 SEB       1.356500
     13 OG          16.9470    22.0040    -0.1870 os         1 SEB      -0.502500
     14 CB          16.5480    23.2360    -0.8180 c3         1 SEB       0.162400
     15 CA          16.1470    22.9390    -2.2860 c3         1 SEB       0.001500
     16 O           18.0640    23.6700    -3.5600 o          1 SEB      -0.822300
     17 OXT         17.7230    21.5470    -3.5160 o          1 SEB      -0.822300
     18 H           14.3090    22.1390    -1.6580 hn         1 SEB       0.333800
     19 H2          15.3960    21.0100    -2.0580 hn         1 SEB       0.333800
     20 HJ          22.8400    20.7710    -1.5680 ha         1 SEB       0.122000
     21 HI1         22.2570    19.8060     0.6570 ha         1 SEB       0.127000
     22 HH1         20.4270    20.8030     2.0090 ha         1 SEB       0.133000
     23 HE3         19.1500    23.0380     2.4330 h1         1 SEB       0.092200
     24 HE2         18.5920    23.9680     1.0330 h1         1 SEB       0.092200
     25 HB3         15.6810    23.6740    -0.3040 h1         1 SEB       0.038700
     26 HB2         17.3570    23.9770    -0.8060 h1         1 SEB       0.038700
     27 HA          15.7270    23.8750    -2.6780 h1         1 SEB       0.054700
     28 HI2         21.5850    22.7460    -2.4330 ha         1 SEB       0.127000
     29 HH2         19.7590    23.7510    -1.0870 ha         1 SEB       0.133000
@<TRIPOS>BOND
     1     1    15 1   
     2     1    16 1   
     3     1    17 1   
     4     2    15 1   
     5     2    18 1   
     6     2    19 1   
     7     3     4 ar  
     8     3     5 ar  
     9     3    28 1   
    10     4     8 ar  
    11     4    29 1   
    12     5     6 ar  
    13     5    20 1   
    14     6     7 ar  
    15     6    21 1   
    16     7     8 ar  
    17     7    22 1   
    18     8     9 1   
    19     9    12 1   
    20     9    23 1   
    21     9    24 1   
    22    10    12 2   
    23    11    12 2   
    24    12    13 1   
    25    13    14 1   
    26    14    15 1   
    27    14    25 1   
    28    14    26 1   
    29    15    27 1   
@<TRIPOS>SUBSTRUCTURE
     1 SEB         1 TEMP              0 ****  ****    0 ROOT
