@<TRIPOS>MOLECULE
SEB
   29    29     1     0     0
SMALL
bcc


@<TRIPOS>ATOM
      1 C           16.3770    22.1440    -3.4900 c          1 SEB       0.948600
      2 N           14.6060    22.3610    -1.7480 n8         1 SEB      -0.881800
      3 CI2         21.7990    22.6040    -0.9550 ca         1 SEB      -0.124500
      4 CH2         20.6160    23.0110    -0.3530 ca         1 SEB      -0.102500
      5 CJ          22.4730    21.4880    -0.4770 ca         1 SEB      -0.127000
      6 CI1         21.9630    20.7850     0.6070 ca         1 SEB      -0.124500
      7 CH1         20.7810    21.1920     1.2070 ca         1 SEB      -0.102500
      8 CZ          20.1010    22.3100     0.7330 ca         1 SEB      -0.060300
      9 CE          18.8250    22.7470     1.3770 c3         1 SEB      -0.181300
     10 OD2         17.6600    20.4200     0.8300 o          1 SEB      -0.621300
     11 OD1         16.2160    22.3930     1.3650 o          1 SEB      -0.621300
     12 SD          17.4080    21.8430     0.7470 s6         1 SEB       1.356500
     13 OG          17.4340    22.1610    -0.8110 os         1 SEB      -0.502500
     14 CB          16.8550    23.3750    -1.3540 c3         1 SEB       0.162400
     15 CA          15.7630    22.9980    -2.3440 c3         1 SEB       0.001500
     16 O           17.3040    22.6930    -4.1160 o          1 SEB      -0.822300
     17 OXT         15.9090    21.0060    -3.6700 o          1 SEB      -0.822300
     18 H           14.3730    22.7920    -0.8620 hn         1 SEB       0.333800
     19 H2          14.8130    21.3890    -1.5650 hn         1 SEB       0.333800
     20 HJ          23.3960    21.1710    -0.9440 ha         1 SEB       0.122000
     21 HI1         22.4880    19.9170     0.9860 ha         1 SEB       0.127000
     22 HH1         20.3920    20.6450     2.0570 ha         1 SEB       0.133000
     23 HE3         18.8180    22.5580     2.4530 h1         1 SEB       0.092200
     24 HE2         18.6170    23.8070     1.2190 h1         1 SEB       0.092200
     25 HB3         16.4590    24.0000    -0.5510 h1         1 SEB       0.038700
     26 HB2         17.6640    23.9170    -1.8420 h1         1 SEB       0.038700
     27 HA          15.4510    23.9520    -2.7880 h1         1 SEB       0.054700
     28 HI2         22.1930    23.1590    -1.7950 ha         1 SEB       0.127000
     29 HH2         20.0960    23.8870    -0.7230 ha         1 SEB       0.133000
@<TRIPOS>BOND
     1     1    15 1   
     2     1    16 1   
     3     1    17 1   
     4     2    15 1   
     5     2    18 1   
     6     2    19 1   
     7     3     4 ar  
     8     3     5 ar  
     9     3    28 1   
    10     4     8 ar  
    11     4    29 1   
    12     5     6 ar  
    13     5    20 1   
    14     6     7 ar  
    15     6    21 1   
    16     7     8 ar  
    17     7    22 1   
    18     8     9 1   
    19     9    12 1   
    20     9    23 1   
    21     9    24 1   
    22    10    12 2   
    23    11    12 2   
    24    12    13 1   
    25    13    14 1   
    26    14    15 1   
    27    14    25 1   
    28    14    26 1   
    29    15    27 1   
@<TRIPOS>SUBSTRUCTURE
     1 SEB         1 TEMP              0 ****  ****    0 ROOT
