@<TRIPOS>MOLECULE
SEF
   64    63     1     0     0
SMALL
No Charge or Current Charge


@<TRIPOS>ATOM
      1 F           -9.6920     0.7620     1.1830 f          1 SEF      -0.337400
      2 C1          -7.8720    -0.7590    -0.1460 c3         1 SEF      -0.458400
      3 O1          -9.8770     0.7730    -1.4230 o          1 SEF      -0.712000
      4 P1          -9.5670    -0.0470    -0.2100 p5         1 SEF       1.534800
      5 C2          -6.7020     0.2570    -0.1930 c3         1 SEF      -0.050400
      6 O2         -10.4980    -1.3480     0.0270 os         1 SEF      -0.629400
      7 C3          -5.3210    -0.4290    -0.1360 c3         1 SEF      -0.070400
      8 C4          -4.1450     0.5720    -0.1810 c3         1 SEF      -0.076400
      9 C5          -2.7630    -0.1150    -0.1230 c3         1 SEF      -0.073400
     10 C6          -1.5880     0.8850    -0.1680 c3         1 SEF      -0.075400
     11 C7          -0.2060     0.1980    -0.1090 c3         1 SEF      -0.073400
     12 C8           0.9690     1.1990    -0.1540 c3         1 SEF      -0.075400
     13 C9           2.3510     0.5110    -0.0950 c3         1 SEF      -0.084400
     14 C01        -11.9000    -1.1680     0.2470 c3         1 SEF       0.223600
     15 N01          6.9500     0.5550    -0.0390 ns         1 SEF      -0.506900
     16 O01          4.7420     0.7530    -0.0790 os         1 SEF      -0.467100
     17 C02        -12.5200    -2.5660     0.3820 c3         1 SEF      -0.097100
     18 O02          6.0350     2.6540    -0.1760 o          1 SEF      -0.547000
     19 C10          3.5230     1.5110    -0.1400 c3         1 SEF       0.184600
     20 C12          5.9160     1.4410    -0.1050 c          1 SEF       0.639100
     21 C14          8.3610     0.9310    -0.0430 c3         1 SEF       0.121000
     22 C15          9.2790    -0.3020     0.0490 c3         1 SEF      -0.095400
     23 C16         10.7790     0.0640     0.0470 c3         1 SEF      -0.075400
     24 C17         11.7030    -1.1710     0.1400 c3         1 SEF      -0.072400
     25 C18         13.2040    -0.8040     0.1370 c3         1 SEF       0.006700
     26 C19         14.0730    -1.9860     0.2260 c1         1 SEF      -0.145100
     27 C20         14.7660    -2.9750     0.2990 c1         1 SEF      -0.246000
     28 H1          -7.8360    -1.3460     0.7770 hc         1 SEF       0.087200
     29 H1A         -7.8160    -1.4520    -0.9920 hc         1 SEF       0.087200
     30 H2          -6.7700     0.8520    -1.1140 hc         1 SEF       0.051200
     31 H41         -6.7900     0.9580     0.6480 hc         1 SEF       0.051200
     32 H3          -5.2520    -1.0230     0.7840 hc         1 SEF       0.039700
     33 H61         -5.2310    -1.1280    -0.9760 hc         1 SEF       0.039700
     34 H4          -4.2130     1.1660    -1.1010 hc         1 SEF       0.040200
     35 H4A         -4.2350     1.2710     0.6600 hc         1 SEF       0.040200
     36 H5          -2.6950    -0.7100     0.7970 hc         1 SEF       0.037700
     37 H5A         -2.6730    -0.8150    -0.9640 hc         1 SEF       0.037700
     38 H6          -1.6560     1.4800    -1.0870 hc         1 SEF       0.039200
     39 H6A         -1.6780     1.5850     0.6730 hc         1 SEF       0.039200
     40 H7          -0.1390    -0.3970     0.8110 hc         1 SEF       0.039200
     41 H7A         -0.1160    -0.5020    -0.9500 hc         1 SEF       0.039200
     42 H8           0.9010     1.7930    -1.0740 hc         1 SEF       0.041200
     43 H8A          0.8790     1.8980     0.6870 hc         1 SEF       0.041200
     44 H9           2.4220    -0.0810     0.8250 hc         1 SEF       0.052200
     45 H9A          2.4450    -0.1860    -0.9370 hc         1 SEF       0.052200
     46 H01        -12.0870    -0.5970     1.1670 h1         1 SEF       0.044200
     47 H201       -12.3700    -0.6410    -0.5940 h1         1 SEF       0.044200
     48 HN01         6.6950    -0.4230     0.0160 hn         1 SEF       0.327500
     49 H02        -13.6000    -2.4870     0.5540 hc         1 SEF       0.048367
     50 H02A       -12.3580    -3.1500    -0.5310 hc         1 SEF       0.048367
     51 H24        -12.0750    -3.1050     1.2270 hc         1 SEF       0.048367
     52 H10          3.4730     2.0950    -1.0680 h1         1 SEF       0.049200
     53 H10A         3.4500     2.2010     0.7110 h1         1 SEF       0.049200
     54 H14          8.5760     1.4840    -0.9680 h1         1 SEF       0.051200
     55 H14A         8.5510     1.5980     0.8090 h1         1 SEF       0.051200
     56 H15          9.0430    -0.8570     0.9660 hc         1 SEF       0.045700
     57 H15A         9.0690    -0.9700    -0.7960 hc         1 SEF       0.045700
     58 H16         11.0120     0.6210    -0.8690 hc         1 SEF       0.043700
     59 H16A        10.9870     0.7340     0.8910 hc         1 SEF       0.043700
     60 H17         11.4680    -1.7270     1.0560 hc         1 SEF       0.047200
     61 H17A        11.4930    -1.8400    -0.7050 hc         1 SEF       0.047200
     62 H18         13.4480    -0.2520    -0.7790 hc         1 SEF       0.056700
     63 H18A        13.4220    -0.1390     0.9820 hc         1 SEF       0.056700
     64 H20         15.3680    -3.8600     0.3650 ha         1 SEF       0.254000
@<TRIPOS>BOND
     1     1     4 1   
     2     2     4 1   
     3     2     5 1   
     4     2    28 1   
     5     2    29 1   
     6     3     4 2   
     7     4     6 1   
     8     5     7 1   
     9     5    30 1   
    10     5    31 1   
    11     6    14 1   
    12     7     8 1   
    13     7    32 1   
    14     7    33 1   
    15     8     9 1   
    16     8    34 1   
    17     8    35 1   
    18     9    10 1   
    19     9    36 1   
    20     9    37 1   
    21    10    11 1   
    22    10    38 1   
    23    10    39 1   
    24    11    12 1   
    25    11    40 1   
    26    11    41 1   
    27    12    13 1   
    28    12    42 1   
    29    12    43 1   
    30    13    19 1   
    31    13    44 1   
    32    13    45 1   
    33    14    17 1   
    34    14    46 1   
    35    14    47 1   
    36    15    20 1   
    37    15    21 1   
    38    15    48 1   
    39    16    19 1   
    40    16    20 1   
    41    17    49 1   
    42    17    50 1   
    43    17    51 1   
    44    18    20 2   
    45    19    52 1   
    46    19    53 1   
    47    21    22 1   
    48    21    54 1   
    49    21    55 1   
    50    22    23 1   
    51    22    56 1   
    52    22    57 1   
    53    23    24 1   
    54    23    58 1   
    55    23    59 1   
    56    24    25 1   
    57    24    60 1   
    58    24    61 1   
    59    25    26 1   
    60    25    62 1   
    61    25    63 1   
    62    26    27 3   
    63    27    64 1   
@<TRIPOS>SUBSTRUCTURE
     1 SEF         1 TEMP              0 ****  ****    0 ROOT
