@<TRIPOS>MOLECULE
SEF
   64    63     1     0     0
SMALL
abcg2


@<TRIPOS>ATOM
      1 F           -9.4110     1.1110     1.1800 f          1 SEF      -0.337400
      2 C1          -7.8460    -0.6780    -0.0070 c3         1 SEF      -0.458400
      3 O1          -9.6180     1.0400    -1.3400 o          1 SEF      -0.712000
      4 P1          -9.3960     0.2080    -0.1400 p5         1 SEF       1.534800
      5 C2          -6.6290     0.2440    -0.0890 c3         1 SEF      -0.050400
      6 O2         -10.4980    -0.8900     0.1870 os         1 SEF      -0.629400
      7 C3          -5.3260    -0.5450    -0.0480 c3         1 SEF      -0.070400
      8 C4          -4.0980     0.3550    -0.1040 c3         1 SEF      -0.076400
      9 C5          -2.7840    -0.4150    -0.0770 c3         1 SEF      -0.073400
     10 C6          -1.5650     0.4990    -0.1150 c3         1 SEF      -0.075400
     11 C7          -0.2380    -0.2490    -0.0860 c3         1 SEF      -0.073400
     12 C8           0.9610     0.6900    -0.1110 c3         1 SEF      -0.075400
     13 C9           2.3010    -0.0360    -0.0730 c3         1 SEF      -0.084400
     14 C01        -11.9010    -0.6640    -0.0760 c3         1 SEF       0.223600
     15 N01          6.8920     0.1800    -0.0190 ns         1 SEF      -0.506900
     16 O01          4.6760     0.2350    -0.0520 os         1 SEF      -0.467100
     17 C02        -12.6590    -1.9040     0.3270 c3         1 SEF      -0.097100
     18 O02          5.8240     2.1740    -0.1110 o          1 SEF      -0.547000
     19 C10          3.4430     0.9570    -0.0980 c3         1 SEF       0.184600
     20 C12          5.8010     0.9590    -0.0630 c          1 SEF       0.639100
     21 C14          8.2240     0.7460     0.0000 c3         1 SEF       0.121000
     22 C15          9.2800    -0.3470     0.0110 c3         1 SEF      -0.095400
     23 C16         10.6840     0.2430     0.0380 c3         1 SEF      -0.075400
     24 C17         11.7730    -0.8200     0.0520 c3         1 SEF      -0.072400
     25 C18         13.1700    -0.1930     0.0830 c3         1 SEF       0.006700
     26 C19         14.2380    -1.1840     0.1110 c1         1 SEF      -0.145100
     27 C20         15.1090    -2.0130     0.1350 c1         1 SEF      -0.246000
     28 H1          -7.8410    -1.2480     0.9250 hc         1 SEF       0.087200
     29 H1A         -7.8280    -1.4040    -0.8250 hc         1 SEF       0.087200
     30 H2          -6.6690     0.8310    -1.0110 hc         1 SEF       0.051200
     31 H41         -6.6460     0.9590     0.7380 hc         1 SEF       0.051200
     32 H3          -5.2950    -1.1500     0.8650 hc         1 SEF       0.039700
     33 H61         -5.3020    -1.2510    -0.8850 hc         1 SEF       0.039700
     34 H4          -4.1400     0.9700    -1.0100 hc         1 SEF       0.040200
     35 H4A         -4.1250     1.0550     0.7390 hc         1 SEF       0.040200
     36 H5          -2.7440    -1.0390     0.8230 hc         1 SEF       0.037700
     37 H5A         -2.7480    -1.1060    -0.9270 hc         1 SEF       0.037700
     38 H6          -1.6090     1.1230    -1.0140 hc         1 SEF       0.039200
     39 H6A         -1.6070     1.1900     0.7340 hc         1 SEF       0.039200
     40 H7          -0.1910    -0.8770     0.8110 hc         1 SEF       0.039200
     41 H7A         -0.1840    -0.9340    -0.9390 hc         1 SEF       0.039200
     42 H8           0.9090     1.3150    -1.0090 hc         1 SEF       0.041200
     43 H8A          0.8950     1.3770     0.7400 hc         1 SEF       0.041200
     44 H9           2.3610    -0.6500     0.8310 hc         1 SEF       0.052200
     45 H9A          2.3780    -0.7150    -0.9270 hc         1 SEF       0.052200
     46 H01        -12.2450     0.2010     0.4960 h1         1 SEF       0.044200
     47 H201       -12.0390    -0.4490    -1.1360 h1         1 SEF       0.044200
     48 HN01         6.7840    -0.8200     0.0390 hn         1 SEF       0.327500
     49 H02        -13.7190    -1.7560     0.1200 hc         1 SEF       0.048367
     50 H02A       -12.3250    -2.7750    -0.2370 hc         1 SEF       0.048367
     51 H24        -12.5500    -2.1110     1.3910 hc         1 SEF       0.048367
     52 H10          3.3970     1.5620    -1.0070 h1         1 SEF       0.049200
     53 H10A         3.3720     1.6340     0.7570 h1         1 SEF       0.049200
     54 H14          8.3690     1.3840    -0.8760 h1         1 SEF       0.051200
     55 H14A         8.3510     1.3840     0.8800 h1         1 SEF       0.051200
     56 H15          9.1360    -0.9910     0.8840 hc         1 SEF       0.045700
     57 H15A         9.1630    -0.9830    -0.8720 hc         1 SEF       0.045700
     58 H16         10.8210     0.8940    -0.8320 hc         1 SEF       0.043700
     59 H16A        10.7910     0.8850     0.9180 hc         1 SEF       0.043700
     60 H17         11.6490    -1.4690     0.9230 hc         1 SEF       0.047200
     61 H17A        11.6830    -1.4590    -0.8300 hc         1 SEF       0.047200
     62 H18         13.3030     0.4530    -0.7890 hc         1 SEF       0.056700
     63 H18A        13.2630     0.4560     0.9590 hc         1 SEF       0.056700
     64 H20         15.8830    -2.7450     0.1580 ha         1 SEF       0.254000
@<TRIPOS>BOND
     1     1     4 1   
     2     2     4 1   
     3     2     5 1   
     4     2    28 1   
     5     2    29 1   
     6     3     4 2   
     7     4     6 1   
     8     5     7 1   
     9     5    30 1   
    10     5    31 1   
    11     6    14 1   
    12     7     8 1   
    13     7    32 1   
    14     7    33 1   
    15     8     9 1   
    16     8    34 1   
    17     8    35 1   
    18     9    10 1   
    19     9    36 1   
    20     9    37 1   
    21    10    11 1   
    22    10    38 1   
    23    10    39 1   
    24    11    12 1   
    25    11    40 1   
    26    11    41 1   
    27    12    13 1   
    28    12    42 1   
    29    12    43 1   
    30    13    19 1   
    31    13    44 1   
    32    13    45 1   
    33    14    17 1   
    34    14    46 1   
    35    14    47 1   
    36    15    20 1   
    37    15    21 1   
    38    15    48 1   
    39    16    19 1   
    40    16    20 1   
    41    17    49 1   
    42    17    50 1   
    43    17    51 1   
    44    18    20 2   
    45    19    52 1   
    46    19    53 1   
    47    21    22 1   
    48    21    54 1   
    49    21    55 1   
    50    22    23 1   
    51    22    56 1   
    52    22    57 1   
    53    23    24 1   
    54    23    58 1   
    55    23    59 1   
    56    24    25 1   
    57    24    60 1   
    58    24    61 1   
    59    25    26 1   
    60    25    62 1   
    61    25    63 1   
    62    26    27 3   
    63    27    64 1   
@<TRIPOS>SUBSTRUCTURE
     1 SEF         1 TEMP              0 ****  ****    0 ROOT
