@<TRIPOS>MOLECULE
SEH
   29    29     1     0     0
SMALL
abcg2


@<TRIPOS>ATOM
      1 C1          47.3260   120.3440    51.0780 c3         1 SEH       0.020600
      2 S1          47.5970   118.9620    49.9100 ss         1 SEH      -0.251200
      3 C2          48.3030   120.1780    52.2350 c3         1 SEH      -0.074100
      4 CB          45.5630   120.4690    48.5810 c3         1 SEH      -0.071400
      5 CG          46.3380   121.7260    48.2390 ca         1 SEH      -0.077300
      6 CD1         46.0220   122.9320    48.8640 ca         1 SEH      -0.100500
      7 CD2         47.3530   121.7090    47.2830 ca         1 SEH      -0.100500
      8 CE1         46.7050   124.1000    48.5400 ca         1 SEH      -0.116000
      9 CE2         48.0400   122.8740    46.9590 ca         1 SEH      -0.116000
     10 CZ          47.7180   124.0740    47.5870 ca         1 SEH      -0.122000
     11 C13         46.4170   119.2320    48.6340 c2         1 SEH       0.358200
     12 N17         46.2680   118.3960    47.6740 n2         1 SEH      -0.227700
     13 O18         47.1410   117.2880    47.8360 os         1 SEH      -0.442700
     14 S19         47.1380   116.2810    46.5070 s6         1 SEH       1.522300
     15 O20         47.5830   117.1030    45.3930 o          1 SEH      -0.706200
     16 O21         48.1020   115.2980    46.9700 o          1 SEH      -0.706200
     17 O22         45.7750   115.7930    46.3780 o          1 SEH      -0.706200
     18 H1C1        46.2970   120.3100    51.4310 h1         1 SEH       0.055700
     19 H1C2        47.4940   121.2860    50.5610 h1         1 SEH       0.055700
     20 H2C1        48.1570   120.9900    52.9480 hc         1 SEH       0.037367
     21 H2C2        49.3370   120.2100    51.8890 hc         1 SEH       0.037367
     22 H2C3        48.1450   119.2330    52.7580 hc         1 SEH       0.037367
     23 HBC1        45.0460   120.6040    49.5310 hc         1 SEH       0.064700
     24 HBC2        44.7960   120.2910    47.8240 hc         1 SEH       0.064700
     25 HD1         45.2430   122.9530    49.6170 ha         1 SEH       0.125500
     26 HD2         47.6110   120.7790    46.7900 ha         1 SEH       0.125500
     27 HE1         46.4500   125.0270    49.0380 ha         1 SEH       0.106500
     28 HE2         48.8280   122.8440    46.2170 ha         1 SEH       0.106500
     29 HZ          48.2560   124.9800    47.3380 ha         1 SEH       0.101000
@<TRIPOS>BOND
     1     1     2 1   
     2     1     3 1   
     3     1    18 1   
     4     1    19 1   
     5     2    11 1   
     6     3    20 1   
     7     3    21 1   
     8     3    22 1   
     9     4     5 1   
    10     4    11 1   
    11     4    23 1   
    12     4    24 1   
    13     5     6 ar  
    14     5     7 ar  
    15     6     8 ar  
    16     6    25 1   
    17     7     9 ar  
    18     7    26 1   
    19     8    10 ar  
    20     8    27 1   
    21     9    10 ar  
    22     9    28 1   
    23    10    29 1   
    24    11    12 2   
    25    12    13 1   
    26    13    14 1   
    27    14    15 1   
    28    14    16 1   
    29    14    17 1   
@<TRIPOS>SUBSTRUCTURE
     1 SEH         1 TEMP              0 ****  ****    0 ROOT
