@<TRIPOS>MOLECULE
SEH
   29    29     1     0     0
SMALL
No Charge or Current Charge


@<TRIPOS>ATOM
      1 C1          47.4120   120.4430    50.9930 c3         1 SEH       0.020600
      2 S1          47.5910   118.9340    49.9390 ss         1 SEH      -0.251200
      3 C2          48.2610   120.3030    52.2680 c3         1 SEH      -0.074100
      4 CB          45.5920   120.4280    48.4970 c3         1 SEH      -0.071400
      5 CG          46.3410   121.7320    48.2260 ca         1 SEH      -0.077300
      6 CD1         46.0160   122.8970    48.9510 ca         1 SEH      -0.100500
      7 CD2         47.3510   121.7920    47.2440 ca         1 SEH      -0.100500
      8 CE1         46.7030   124.0990    48.7100 ca         1 SEH      -0.116000
      9 CE2         48.0370   122.9950    47.0030 ca         1 SEH      -0.116000
     10 CZ          47.7150   124.1480    47.7370 ca         1 SEH      -0.122000
     11 C13         46.4720   119.1850    48.5320 c2         1 SEH       0.358200
     12 N17         46.3630   118.3140    47.5800 n2         1 SEH      -0.227700
     13 O18         47.2170   117.1650    47.7110 os         1 SEH      -0.442700
     14 S19         47.0820   116.0430    46.4890 s6         1 SEH       1.522300
     15 O20         47.4430   116.7830    45.2670 o          1 SEH      -0.706200
     16 O21         48.0440   114.9930    46.8620 o          1 SEH      -0.706200
     17 O22         45.6740   115.6130    46.5350 o          1 SEH      -0.706200
     18 H1C1        46.3600   120.5780    51.2720 h1         1 SEH       0.055700
     19 H1C2        47.7520   121.3210    50.4310 h1         1 SEH       0.055700
     20 H2C1        48.1590   121.1980    52.8930 hc         1 SEH       0.037367
     21 H2C2        49.3200   120.1780    52.0140 hc         1 SEH       0.037367
     22 H2C3        47.9380   119.4350    52.8540 hc         1 SEH       0.037367
     23 HBC1        45.0280   120.4940    49.4330 hc         1 SEH       0.064700
     24 HBC2        44.8240   120.3080    47.7230 hc         1 SEH       0.064700
     25 HD1         45.2330   122.8720    49.7070 ha         1 SEH       0.125500
     26 HD2         47.6080   120.9080    46.6640 ha         1 SEH       0.125500
     27 HE1         46.4500   124.9930    49.2770 ha         1 SEH       0.106500
     28 HE2         48.8170   123.0330    46.2460 ha         1 SEH       0.106500
     29 HZ          48.2460   125.0790    47.5500 ha         1 SEH       0.101000
@<TRIPOS>BOND
     1     1     2 1   
     2     1     3 1   
     3     1    18 1   
     4     1    19 1   
     5     2    11 1   
     6     3    20 1   
     7     3    21 1   
     8     3    22 1   
     9     4     5 1   
    10     4    11 1   
    11     4    23 1   
    12     4    24 1   
    13     5     6 ar  
    14     5     7 ar  
    15     6     8 ar  
    16     6    25 1   
    17     7     9 ar  
    18     7    26 1   
    19     8    10 ar  
    20     8    27 1   
    21     9    10 ar  
    22     9    28 1   
    23    10    29 1   
    24    11    12 2   
    25    12    13 1   
    26    13    14 1   
    27    14    15 1   
    28    14    16 1   
    29    14    17 1   
@<TRIPOS>SUBSTRUCTURE
     1 SEH         1 TEMP              0 ****  ****    0 ROOT
