@<TRIPOS>MOLECULE
SEI
   81    83     1     0     0
SMALL
abcg2


@<TRIPOS>ATOM
      1 C2          -2.9220    -0.6710   -10.1270 c6         1 SEI       0.130600
      2 C3          -2.9160     0.5420    -9.2130 c6         1 SEI       0.058000
      3 C15         -0.9260     0.9720    -7.8730 c          1 SEI       0.614700
      4 C19          1.3760     0.4160    -4.2930 ca         1 SEI      -0.133600
      5 C20          1.9460     0.2290    -5.5500 ca         1 SEI      -0.077000
      6 C21          1.1930     0.3870    -6.7000 ca         1 SEI      -0.089500
      7 C22         -0.1570     0.7110    -6.6150 ca         1 SEI      -0.123600
      8 C30          3.0080     1.4830    -0.2280 c3         1 SEI      -0.068700
      9 C31          1.9480     2.5270     0.1070 c3         1 SEI      -0.092100
     10 C35          4.0090     1.3470     0.9130 c3         1 SEI      -0.092100
     11 O1          -3.3170    -1.8330    -9.4310 os         1 SEI      -0.444000
     12 N4          -2.0710     0.2870    -8.0560 n          1 SEI      -0.406800
     13 C5          -2.4420    -0.9320    -7.3530 c6         1 SEI       0.058000
     14 C6          -2.4700    -2.0930    -8.3360 c6         1 SEI       0.130600
     15 O16         -0.5090     1.8130    -8.6580 o          1 SEI      -0.587100
     16 C17         -0.7310     0.9050    -5.3630 ca         1 SEI      -0.089500
     17 C18          0.0300     0.7680    -4.2140 ca         1 SEI      -0.077000
     18 N28          1.6730     0.2370    -1.8970 ns         1 SEI      -0.497900
     19 C29          2.4130     0.1190    -0.6600 c3         1 SEI       0.050700
     20 C40          1.4480    -0.4340     0.3790 c          1 SEI       0.605100
     21 O42          0.2650    -0.1100     0.3530 o          1 SEI      -0.630100
     22 C44          1.0120    -1.6780     2.3810 c5         1 SEI       0.026700
     23 C45          3.2160    -1.9170     1.4150 c5         1 SEI       0.108000
     24 C46          2.9120    -3.1250     2.2880 c5         1 SEI      -0.097400
     25 C47          1.8780    -2.5820     3.2670 c5         1 SEI      -0.085400
     26 C52          0.4720    -0.4850     3.1580 c          1 SEI       0.610100
     27 N53         -0.8010    -0.6310     3.5710 ns         1 SEI      -0.499900
     28 N54          1.9200    -1.2450     1.3350 n          1 SEI      -0.391800
     29 C59         -1.4970     0.3760     4.3320 c3         1 SEI       0.034700
     30 C61         -2.3690     1.3010     3.4490 c3         1 SEI      -0.070700
     31 C62         -3.3220     0.5510     2.5260 c3         1 SEI      -0.095100
     32 C66         -3.1120     2.3350     4.2880 c3         1 SEI      -0.095100
     33 C71         -2.3100    -0.3510     5.3900 c          1 SEI       0.528100
     34 C73         -2.0990     0.0080     6.8780 c3         1 SEI       0.020000
     35 O74         -3.0790    -1.2350     5.1390 o          1 SEI      -0.444100
     36 F75         -1.7500     1.3010     7.0210 f          1 SEI      -0.073500
     37 F76         -3.2370    -0.2010     7.5560 f          1 SEI      -0.073500
     38 C77         -0.9920    -0.8590     7.5070 c3         1 SEI       0.269000
     39 F78         -0.7450    -0.4910     8.7550 f          1 SEI      -0.090667
     40 F79         -1.3540    -2.1350     7.5000 f          1 SEI      -0.090667
     41 F80          0.1270    -0.7340     6.7950 f          1 SEI      -0.090667
     42 H21         -3.6320    -0.5190   -10.9410 h1         1 SEI       0.055200
     43 H22         -1.9230    -0.8020   -10.5660 h1         1 SEI       0.055200
     44 H31         -3.9300     0.7510    -8.8590 h1         1 SEI       0.067200
     45 H32         -2.5590     1.4190    -9.7470 h1         1 SEI       0.067200
     46 H201         2.9910    -0.0360    -5.6310 ha         1 SEI       0.130500
     47 H211         1.6590     0.2460    -7.6670 ha         1 SEI       0.127000
     48 H301         3.5580     1.8300    -1.1070 hc         1 SEI       0.066700
     49 H311         2.4240     3.5010     0.2260 hc         1 SEI       0.040700
     50 H312         1.1960     2.6270    -0.6770 hc         1 SEI       0.040700
     51 H313         1.4360     2.2960     1.0420 hc         1 SEI       0.040700
     52 H351         3.5250     1.0440     1.8420 hc         1 SEI       0.040700
     53 H352         4.7930     0.6240     0.6810 hc         1 SEI       0.040700
     54 H353         4.4940     2.3070     1.0950 hc         1 SEI       0.040700
     55 H51         -1.7310    -1.1560    -6.5610 h1         1 SEI       0.067200
     56 H52         -3.4250    -0.7980    -6.8930 h1         1 SEI       0.067200
     57 H61         -2.8430    -2.9880    -7.8380 h1         1 SEI       0.055200
     58 H62         -1.4460    -2.2960    -8.6790 h1         1 SEI       0.055200
     59 H171        -1.7760     1.1770    -5.2770 ha         1 SEI       0.127000
     60 H182        -0.4590     0.9590    -3.2670 ha         1 SEI       0.130500
     61 H281         0.6720     0.3100    -1.8100 hn         1 SEI       0.339500
     62 H291         3.2400    -0.5750    -0.8240 h1         1 SEI       0.080700
     63 H441         0.1860    -2.2520     1.9470 h1         1 SEI       0.067700
     64 H451         3.5840    -2.1970     0.4300 h1         1 SEI       0.059700
     65 H452         3.9600    -1.2760     1.8920 h1         1 SEI       0.059700
     66 H461         2.4820    -3.9290     1.6870 hc         1 SEI       0.060200
     67 H462         3.8030    -3.5100     2.7810 hc         1 SEI       0.060200
     68 H471         1.2860    -3.3560     3.7510 hc         1 SEI       0.067200
     69 H472         2.3720    -1.9950     4.0440 hc         1 SEI       0.067200
     70 H531        -1.3350    -1.4070     3.2100 hn         1 SEI       0.328500
     71 H591        -0.7420     1.0010     4.8080 h1         1 SEI       0.107700
     72 H611        -1.6450     1.8290     2.8220 hc         1 SEI       0.075700
     73 H621        -3.8310     1.2650     1.8780 hc         1 SEI       0.042200
     74 H622        -2.7970    -0.1490     1.8750 hc         1 SEI       0.042200
     75 H623        -4.0920     0.0040     3.0710 hc         1 SEI       0.042200
     76 H661        -3.8660     1.8770     4.9340 hc         1 SEI       0.042200
     77 H662        -2.4350     2.9190     4.9110 hc         1 SEI       0.042200
     78 H663        -3.6370     3.0330     3.6360 hc         1 SEI       0.042200
     79 C27          2.2670     0.2480    -3.0980 c          1 SEI       0.614700
     80 O58          1.1680     0.4750     3.4320 o          1 SEI      -0.581100
     81 O81          3.4770     0.1200    -3.2360 o          1 SEI      -0.610100
@<TRIPOS>BOND
     1     1     2 1   
     2     1    11 1   
     3     1    42 1   
     4     1    43 1   
     5     2    12 1   
     6     2    44 1   
     7     2    45 1   
     8     3     7 1   
     9     3    12 1   
    10     3    15 2   
    11     4     5 ar  
    12     4    17 ar  
    13     4    79 1   
    14     5     6 ar  
    15     5    46 1   
    16     6     7 ar  
    17     6    47 1   
    18     7    16 ar  
    19     8     9 1   
    20     8    10 1   
    21     8    19 1   
    22     8    48 1   
    23     9    49 1   
    24     9    50 1   
    25     9    51 1   
    26    10    52 1   
    27    10    53 1   
    28    10    54 1   
    29    11    14 1   
    30    12    13 1   
    31    13    14 1   
    32    13    55 1   
    33    13    56 1   
    34    14    57 1   
    35    14    58 1   
    36    16    17 ar  
    37    16    59 1   
    38    17    60 1   
    39    18    19 1   
    40    18    61 1   
    41    18    79 1   
    42    19    20 1   
    43    19    62 1   
    44    20    21 2   
    45    20    28 1   
    46    22    25 1   
    47    22    26 1   
    48    22    28 1   
    49    22    63 1   
    50    23    24 1   
    51    23    28 1   
    52    23    64 1   
    53    23    65 1   
    54    24    25 1   
    55    24    66 1   
    56    24    67 1   
    57    25    68 1   
    58    25    69 1   
    59    26    27 1   
    60    26    80 2   
    61    27    29 1   
    62    27    70 1   
    63    29    30 1   
    64    29    33 1   
    65    29    71 1   
    66    30    31 1   
    67    30    32 1   
    68    30    72 1   
    69    31    73 1   
    70    31    74 1   
    71    31    75 1   
    72    32    76 1   
    73    32    77 1   
    74    32    78 1   
    75    33    34 1   
    76    33    35 2   
    77    34    36 1   
    78    34    37 1   
    79    34    38 1   
    80    38    39 1   
    81    38    40 1   
    82    38    41 1   
    83    79    81 2   
@<TRIPOS>SUBSTRUCTURE
     1 SEI         1 TEMP              0 ****  ****    0 ROOT
