@<TRIPOS>MOLECULE
SEI
   81    83     1     0     0
SMALL
No Charge or Current Charge


@<TRIPOS>ATOM
      1 C2          -3.1950    -0.3030   -10.3570 c6         1 SEI       0.130600
      2 C3          -2.8660     0.8650    -9.3920 c6         1 SEI       0.058000
      3 C15         -0.6080     0.8000    -8.2400 c          1 SEI       0.614700
      4 C19          1.6920     0.3020    -4.5570 ca         1 SEI      -0.133600
      5 C20          2.3160     0.2720    -5.8240 ca         1 SEI      -0.077000
      6 C21          1.5680     0.4310    -7.0020 ca         1 SEI      -0.089500
      7 C22          0.1700     0.6090    -6.9520 ca         1 SEI      -0.123600
      8 C30          3.1490     1.3840    -0.3510 c3         1 SEI      -0.068700
      9 C31          2.1160     2.5270    -0.1830 c3         1 SEI      -0.092100
     10 C35          4.0570     1.2790     0.8950 c3         1 SEI      -0.092100
     11 O1          -3.7420    -1.4130    -9.6120 os         1 SEI      -0.444000
     12 N4          -1.9750     0.4320    -8.2730 n          1 SEI      -0.406800
     13 C5          -2.4740    -0.8050    -7.5910 c6         1 SEI       0.058000
     14 C6          -2.8360    -1.9210    -8.6080 c6         1 SEI       0.130600
     15 O16         -0.0840     1.3420    -9.2070 o          1 SEI      -0.587100
     16 C17         -0.4550     0.6670    -5.6860 ca         1 SEI      -0.089500
     17 C18          0.2920     0.5090    -4.5050 ca         1 SEI      -0.077000
     18 N28          1.8640     0.1410    -2.1040 ns         1 SEI      -0.497900
     19 C29          2.4940     0.0250    -0.7680 c3         1 SEI       0.050700
     20 C40          1.4310    -0.5000     0.2560 c          1 SEI       0.605100
     21 O42          0.2320    -0.2990     0.0770 o          1 SEI      -0.630100
     22 C44          0.9270    -1.4830     2.5380 c5         1 SEI       0.026700
     23 C45          3.1000    -1.9890     1.4710 c5         1 SEI       0.108000
     24 C46          2.7810    -3.0020     2.6010 c5         1 SEI      -0.097400
     25 C47          1.8980    -2.1580     3.5490 c5         1 SEI      -0.085400
     26 C52          0.2790    -0.2370     3.2180 c          1 SEI       0.610100
     27 N53         -0.8290    -0.6350     3.9370 ns         1 SEI      -0.499900
     28 N54          1.8620    -1.1760     1.4190 n          1 SEI      -0.391800
     29 C59         -1.7170     0.2830     4.6850 c3         1 SEI       0.034700
     30 C61         -2.7250     1.0170     3.7440 c3         1 SEI      -0.070700
     31 C62         -3.5880     0.0680     2.8710 c3         1 SEI      -0.095100
     32 C66         -3.6110     2.0270     4.5100 c3         1 SEI      -0.095100
     33 C71         -2.3770    -0.4860     5.8710 c          1 SEI       0.528100
     34 C73         -2.0310    -0.0170     7.3060 c3         1 SEI       0.020000
     35 O74         -3.1220    -1.4410     5.6730 o          1 SEI      -0.444100
     36 F75         -2.1280     1.3320     7.4020 f          1 SEI      -0.073500
     37 F76         -2.9270    -0.5190     8.1940 f          1 SEI      -0.073500
     38 C77         -0.6020    -0.4630     7.7220 c3         1 SEI       0.269000
     39 F78         -0.3520    -0.1720     9.0200 f          1 SEI      -0.090667
     40 F79         -0.4440    -1.7970     7.5540 f          1 SEI      -0.090667
     41 F80          0.3480     0.1460     6.9750 f          1 SEI      -0.090667
     42 H21         -3.9270     0.0240   -11.1080 h1         1 SEI       0.055200
     43 H22         -2.2840    -0.6280   -10.8810 h1         1 SEI       0.055200
     44 H31         -3.8040     1.2500    -8.9680 h1         1 SEI       0.067200
     45 H32         -2.4130     1.6900    -9.9590 h1         1 SEI       0.067200
     46 H201         3.3910     0.1250    -5.9010 ha         1 SEI       0.130500
     47 H211         2.0790     0.4040    -7.9620 ha         1 SEI       0.127000
     48 H301         3.8110     1.6820    -1.1740 hc         1 SEI       0.066700
     49 H311         2.6230     3.4770     0.0230 hc         1 SEI       0.040700
     50 H312         1.5200     2.6600    -1.0930 hc         1 SEI       0.040700
     51 H313         1.4320     2.3230     0.6500 hc         1 SEI       0.040700
     52 H351         3.4770     1.0360     1.7940 hc         1 SEI       0.040700
     53 H352         4.8260     0.5120     0.7510 hc         1 SEI       0.040700
     54 H353         4.5700     2.2320     1.0770 hc         1 SEI       0.040700
     55 H51         -1.7210    -1.2100    -6.9030 h1         1 SEI       0.067200
     56 H52         -3.3630    -0.5540    -6.9950 h1         1 SEI       0.067200
     57 H61         -3.3110    -2.7640    -8.0870 h1         1 SEI       0.055200
     58 H62         -1.9250    -2.2930    -9.0990 h1         1 SEI       0.055200
     59 H171        -1.5230     0.8540    -5.6080 ha         1 SEI       0.127000
     60 H182        -0.2380     0.5610    -3.5580 ha         1 SEI       0.130500
     61 H281         0.8570     0.2430    -2.1370 hn         1 SEI       0.339500
     62 H291         3.2840    -0.7320    -0.8430 h1         1 SEI       0.080700
     63 H441         0.1390    -2.1720     2.2030 h1         1 SEI       0.067700
     64 H451         3.3140    -2.4990     0.5220 h1         1 SEI       0.059700
     65 H452         3.9650    -1.3700     1.7390 h1         1 SEI       0.059700
     66 H461         2.2270    -3.8650     2.2100 hc         1 SEI       0.060200
     67 H462         3.6850    -3.3860     3.0870 hc         1 SEI       0.060200
     68 H471         1.3740    -2.7670     4.2960 hc         1 SEI       0.067200
     69 H472         2.4990    -1.4170     4.0920 hc         1 SEI       0.067200
     70 H531        -1.0650    -1.6220     3.9070 hn         1 SEI       0.328500
     71 H591        -1.0820     1.0610     5.1300 h1         1 SEI       0.107700
     72 H611        -2.1200     1.6080     3.0440 hc         1 SEI       0.075700
     73 H621        -4.1940     0.6480     2.1640 hc         1 SEI       0.042200
     74 H622        -2.9610    -0.6140     2.2850 hc         1 SEI       0.042200
     75 H623        -4.2720    -0.5290     3.4840 hc         1 SEI       0.042200
     76 H661        -4.2820     1.5170     5.2120 hc         1 SEI       0.042200
     77 H662        -2.9940     2.7360     5.0750 hc         1 SEI       0.042200
     78 H663        -4.2290     2.6050     3.8110 hc         1 SEI       0.042200
     79 C27          2.5330     0.1270    -3.3070 c          1 SEI       0.614700
     80 O58          0.6550     0.9270     3.1600 o          1 SEI      -0.581100
     81 O81          3.7470    -0.0250    -3.3540 o          1 SEI      -0.610100
@<TRIPOS>BOND
     1     1     2 1   
     2     1    11 1   
     3     1    42 1   
     4     1    43 1   
     5     2    12 1   
     6     2    44 1   
     7     2    45 1   
     8     3     7 1   
     9     3    12 1   
    10     3    15 2   
    11     4     5 ar  
    12     4    17 ar  
    13     4    79 1   
    14     5     6 ar  
    15     5    46 1   
    16     6     7 ar  
    17     6    47 1   
    18     7    16 ar  
    19     8     9 1   
    20     8    10 1   
    21     8    19 1   
    22     8    48 1   
    23     9    49 1   
    24     9    50 1   
    25     9    51 1   
    26    10    52 1   
    27    10    53 1   
    28    10    54 1   
    29    11    14 1   
    30    12    13 1   
    31    13    14 1   
    32    13    55 1   
    33    13    56 1   
    34    14    57 1   
    35    14    58 1   
    36    16    17 ar  
    37    16    59 1   
    38    17    60 1   
    39    18    19 1   
    40    18    61 1   
    41    18    79 1   
    42    19    20 1   
    43    19    62 1   
    44    20    21 2   
    45    20    28 1   
    46    22    25 1   
    47    22    26 1   
    48    22    28 1   
    49    22    63 1   
    50    23    24 1   
    51    23    28 1   
    52    23    64 1   
    53    23    65 1   
    54    24    25 1   
    55    24    66 1   
    56    24    67 1   
    57    25    68 1   
    58    25    69 1   
    59    26    27 1   
    60    26    80 2   
    61    27    29 1   
    62    27    70 1   
    63    29    30 1   
    64    29    33 1   
    65    29    71 1   
    66    30    31 1   
    67    30    32 1   
    68    30    72 1   
    69    31    73 1   
    70    31    74 1   
    71    31    75 1   
    72    32    76 1   
    73    32    77 1   
    74    32    78 1   
    75    33    34 1   
    76    33    35 2   
    77    34    36 1   
    78    34    37 1   
    79    34    38 1   
    80    38    39 1   
    81    38    40 1   
    82    38    41 1   
    83    79    81 2   
@<TRIPOS>SUBSTRUCTURE
     1 SEI         1 TEMP              0 ****  ****    0 ROOT
