@<TRIPOS>MOLECULE
SEJ
   20    20     1     0     0
SMALL
No Charge or Current Charge


@<TRIPOS>ATOM
      1 C1          22.2340    22.6400    30.2180 c6         1 SEJ       0.341300
      2 C2          21.5610    23.2510    28.9380 c6         1 SEJ       0.164300
      3 C3          20.7750    22.1480    28.1380 c6         1 SEJ       0.190300
      4 C4          19.8310    21.3420    29.0820 c6         1 SEJ       0.098300
      5 C5          20.6600    20.7790    30.2660 c6         1 SEJ       0.123600
      6 O1          23.3180    21.7780    29.8750 oh         1 SEJ      -0.724000
      7 O2          22.5550    23.9100    28.1140 oh         1 SEJ      -0.687000
      8 O3          19.9760    22.7250    27.0870 oh         1 SEJ      -0.687000
      9 O4          18.7660    22.1940    29.5580 oh         1 SEJ      -0.696000
     10 O5          21.2920    21.8670    30.9860 os         1 SEJ      -0.468000
     11 H1          22.6090    23.4650    30.8440 h2         1 SEJ       0.059700
     12 H2          20.8300    23.9960    29.2860 h1         1 SEJ       0.070700
     13 H3          21.5070    21.4470    27.7090 h1         1 SEJ       0.056700
     14 H4          19.4080    20.4960    28.5200 h1         1 SEJ       0.033700
     15 H51         20.0030    20.2290    30.9550 h1         1 SEJ       0.055200
     16 H52         21.4190    20.0720    29.9010 h1         1 SEJ       0.055200
     17 HO2         23.3480    23.3240    28.1600 ho         1 SEJ       0.501000
     18 HO3         19.1060    22.8910    27.5210 ho         1 SEJ       0.501000
     19 HO4         18.9900    22.4260    30.4910 ho         1 SEJ       0.501000
     20 HO1         23.5940    21.3710    30.7260 ho         1 SEJ       0.511000
@<TRIPOS>BOND
     1     1     2 1   
     2     1     6 1   
     3     1    10 1   
     4     1    11 1   
     5     2     3 1   
     6     2     7 1   
     7     2    12 1   
     8     3     4 1   
     9     3     8 1   
    10     3    13 1   
    11     4     5 1   
    12     4     9 1   
    13     4    14 1   
    14     5    10 1   
    15     5    15 1   
    16     5    16 1   
    17     6    20 1   
    18     7    17 1   
    19     8    18 1   
    20     9    19 1   
@<TRIPOS>SUBSTRUCTURE
     1 SEJ         1 TEMP              0 ****  ****    0 ROOT
