@<TRIPOS>MOLECULE
SEJ
   20    20     1     0     0
SMALL
abcg2


@<TRIPOS>ATOM
      1 C1          22.4090    22.3960    30.0970 c6         1 SEJ       0.341300
      2 C2          21.6910    23.1250    28.9510 c6         1 SEJ       0.164300
      3 C3          20.7070    22.1880    28.2630 c6         1 SEJ       0.190300
      4 C4          19.7630    21.5730    29.2980 c6         1 SEJ       0.098300
      5 C5          20.5860    20.9210    30.3980 c6         1 SEJ       0.123600
      6 O1          23.2620    21.4440    29.5510 oh         1 SEJ      -0.724000
      7 O2          22.5970    23.6050    27.9940 oh         1 SEJ      -0.687000
      8 O3          20.0260    22.9160    27.2740 oh         1 SEJ      -0.687000
      9 O4          18.9220    22.5880    29.7940 oh         1 SEJ      -0.696000
     10 O5          21.4840    21.8400    30.9930 os         1 SEJ      -0.468000
     11 H1          22.9690    23.1260    30.6950 h2         1 SEJ       0.059700
     12 H2          21.1260    23.9500    29.4070 h1         1 SEJ       0.070700
     13 H3          21.2720    21.3550    27.8190 h1         1 SEJ       0.056700
     14 H4          19.1760    20.7800    28.8090 h1         1 SEJ       0.033700
     15 H51         19.9360    20.5600    31.1980 h1         1 SEJ       0.055200
     16 H52         21.1120    20.0490    29.9930 h1         1 SEJ       0.055200
     17 HO2         23.1290    24.2970    28.3980 ho         1 SEJ       0.501000
     18 HO3         19.4490    22.3110    26.7970 ho         1 SEJ       0.501000
     19 HO4         18.3020    22.1880    30.4110 ho         1 SEJ       0.501000
     20 HO1         23.8650    21.1370    30.2370 ho         1 SEJ       0.511000
@<TRIPOS>BOND
     1     1     2 1   
     2     1     6 1   
     3     1    10 1   
     4     1    11 1   
     5     2     3 1   
     6     2     7 1   
     7     2    12 1   
     8     3     4 1   
     9     3     8 1   
    10     3    13 1   
    11     4     5 1   
    12     4     9 1   
    13     4    14 1   
    14     5    10 1   
    15     5    15 1   
    16     5    16 1   
    17     6    20 1   
    18     7    17 1   
    19     8    18 1   
    20     9    19 1   
@<TRIPOS>SUBSTRUCTURE
     1 SEJ         1 TEMP              0 ****  ****    0 ROOT
