@<TRIPOS>MOLECULE
SEK
    3     2     1     0     0
SMALL
No Charge or Current Charge


@<TRIPOS>ATOM
      1 SE          -0.2330    -0.1850    -0.3040 s          1 SEK      -0.967100
      2 C            1.1940     0.2300     0.2870 c1         1 SEK       0.662100
      3 N            2.3140     0.0500     0.0330 n1         1 SEK      -0.695000
@<TRIPOS>BOND
     1     1     2 1   
     2     2     3 3   
@<TRIPOS>SUBSTRUCTURE
     1 SEK         1 TEMP              0 ****  ****    0 ROOT
