@<TRIPOS>MOLECULE
SEK
    3     2     1     0     0
SMALL
abcg2


@<TRIPOS>ATOM
      1 SE          -0.4940     0.0150    -0.0210 s          1 SEK      -0.967100
      2 C            1.3020     0.0340     0.0090 c1         1 SEK       0.662100
      3 N            2.4670     0.0460     0.0280 n1         1 SEK      -0.695000
@<TRIPOS>BOND
     1     1     2 1   
     2     2     3 3   
@<TRIPOS>SUBSTRUCTURE
     1 SEK         1 TEMP              0 ****  ****    0 ROOT
