@<TRIPOS>MOLECULE
SEL
   15    14     1     0     0
SMALL
No Charge or Current Charge


@<TRIPOS>ATOM
      1 N           -0.0010     1.4910    -0.0620 n8         1 SEL      -0.973200
      2 CA          -0.0390     0.0320     0.2660 c3         1 SEL       0.157500
      3 CB          -1.3200    -0.6820    -0.2710 c3         1 SEL       0.143600
      4 OG          -2.5180    -0.1270     0.3010 oh         1 SEL      -0.648000
      5 C            1.2530    -0.6780    -0.2400 c3         1 SEL       0.143600
      6 OXT          2.4310     0.0300     0.1890 oh         1 SEL      -0.648000
      7 HN1          0.9790     1.7830     0.0420 hn         1 SEL       0.396500
      8 HN2         -0.1730     1.6050    -1.0660 hn         1 SEL       0.396500
      9 HA1         -0.0390    -0.0650     1.3620 h1         1 SEL       0.085700
     10 HB1         -1.3490    -0.5960    -1.3650 h1         1 SEL       0.015700
     11 HB2         -1.2560    -1.7510    -0.0270 h1         1 SEL       0.015700
     12 HOG         -3.2780    -0.5880    -0.1210 ho         1 SEL       0.442000
     13 H21          1.2690    -1.7080     0.1420 h1         1 SEL       0.015700
     14 H22          1.2290    -0.7320    -1.3370 h1         1 SEL       0.015700
     15 HXT          3.2070    -0.4770    -0.1410 ho         1 SEL       0.442000
@<TRIPOS>BOND
     1     1     2 1   
     2     1     7 1   
     3     1     8 1   
     4     2     3 1   
     5     2     5 1   
     6     2     9 1   
     7     3     4 1   
     8     3    10 1   
     9     3    11 1   
    10     4    12 1   
    11     5     6 1   
    12     5    13 1   
    13     5    14 1   
    14     6    15 1   
@<TRIPOS>SUBSTRUCTURE
     1 SEL         1 TEMP              0 ****  ****    0 ROOT
