@<TRIPOS>MOLECULE
SEL
   15    14     1     0     0
SMALL
abcg2


@<TRIPOS>ATOM
      1 N           -0.0580     1.4520    -0.1400 n8         1 SEL      -0.973200
      2 CA          -0.0230     0.0510     0.2380 c3         1 SEL       0.157500
      3 CB          -1.2620    -0.6690    -0.2650 c3         1 SEL       0.143600
      4 OG          -2.4110    -0.1260     0.3370 oh         1 SEL      -0.648000
      5 C            1.2120    -0.7010    -0.2530 c3         1 SEL       0.143600
      6 OXT          2.3610    -0.0700     0.2620 oh         1 SEL      -0.648000
      7 HN1          0.7880     1.9080     0.1780 hn         1 SEL       0.396500
      8 HN2         -0.0470     1.5310    -1.1520 hn         1 SEL       0.396500
      9 HA1         -0.0270    -0.0090     1.3330 h1         1 SEL       0.085700
     10 HB1         -1.3070    -0.5860    -1.3620 h1         1 SEL       0.015700
     11 HB2         -1.1630    -1.7390    -0.0400 h1         1 SEL       0.015700
     12 HOG         -3.1720    -0.5740    -0.0370 ho         1 SEL       0.442000
     13 H21          1.1560    -1.7500     0.0680 h1         1 SEL       0.015700
     14 H22          1.2180    -0.7060    -1.3530 h1         1 SEL       0.015700
     15 HXT          3.1290    -0.4770    -0.1420 ho         1 SEL       0.442000
@<TRIPOS>BOND
     1     1     2 1   
     2     1     7 1   
     3     1     8 1   
     4     2     3 1   
     5     2     5 1   
     6     2     9 1   
     7     3     4 1   
     8     3    10 1   
     9     3    11 1   
    10     4    12 1   
    11     5     6 1   
    12     5    13 1   
    13     5    14 1   
    14     6    15 1   
@<TRIPOS>SUBSTRUCTURE
     1 SEL         1 TEMP              0 ****  ****    0 ROOT
