@<TRIPOS>MOLECULE
SEQ
   41    44     1     0     0
SMALL
No Charge or Current Charge


@<TRIPOS>ATOM
      1 C10         29.2170    17.7700   -29.2100 ca         1 SEQ      -0.083000
      2 C15         28.4840    17.7260   -22.2340 c6         1 SEQ      -0.088400
      3 C17         27.2590    18.6270   -20.1270 c6         1 SEQ      -0.078400
      4 C01         33.3200    20.4570   -24.6630 cx         1 SEQ      -0.108900
      5 C02         32.4900    20.5660   -23.4070 cx         1 SEQ      -0.108900
      6 C03         31.8830    20.9280   -24.7460 cx         1 SEQ      -0.187000
      7 C04         30.8130    20.0900   -25.3850 ca         1 SEQ       0.223300
      8 N05         31.0080    19.7250   -26.6670 nb         1 SEQ      -0.216000
      9 C06         30.0550    18.9710   -27.2530 ca         1 SEQ       0.061000
     10 C07         28.8980    18.5860   -26.5300 ca         1 SEQ      -0.183000
     11 C08         27.9090    17.7920   -27.1580 ca         1 SEQ      -0.070000
     12 C09         28.0730    17.3880   -28.4930 ca         1 SEQ      -0.131000
     13 C11         30.2020    18.5570   -28.5900 ca         1 SEQ      -0.101000
     14 C12         28.7940    19.0250   -25.1890 ca         1 SEQ       0.414900
     15 N13         27.6990    18.7000   -24.3840 nu         1 SEQ      -0.923100
     16 C14         27.6390    18.8320   -22.9170 c6         1 SEQ       0.237500
     17 C16         28.5180    17.9060   -20.6880 c6         1 SEQ      -0.069900
     18 C18         25.9990    18.3050   -20.9640 c6         1 SEQ      -0.069900
     19 C19         26.1550    18.7580   -22.4470 c6         1 SEQ      -0.088400
     20 N20         29.7500    19.7800   -24.6220 nb         1 SEQ      -0.304000
     21 H1          29.3430    17.4560   -30.2440 ha         1 SEQ       0.115000
     22 H3          29.5110    17.7250   -22.6220 hc         1 SEQ       0.044700
     23 H4          27.4240    19.7140   -20.1260 hc         1 SEQ       0.041700
     24 H5          27.1010    18.3410   -19.0780 hc         1 SEQ       0.041700
     25 H6          33.5540    19.4600   -25.0280 hc         1 SEQ       0.075450
     26 H7          34.1050    21.1940   -24.8180 hc         1 SEQ       0.075450
     27 H8          32.7170    21.3750   -22.7170 hc         1 SEQ       0.075450
     28 H9          32.1710    19.6400   -22.9320 hc         1 SEQ       0.075450
     29 H10         31.7300    21.9870   -24.9380 hc         1 SEQ       0.099700
     30 H11         27.0130    17.4810   -26.6280 ha         1 SEQ       0.103000
     31 H12         27.3110    16.7780   -28.9730 ha         1 SEQ       0.115000
     32 H13         31.0860    18.8480   -29.1520 ha         1 SEQ       0.133000
     33 H14         26.9840    18.1380   -24.8380 hn         1 SEQ       0.492000
     34 H15         28.0380    19.8110   -22.6050 h1         1 SEQ       0.083700
     35 H16         28.6220    16.9190   -20.2160 hc         1 SEQ       0.041950
     36 H17         29.4120    18.4750   -20.4000 hc         1 SEQ       0.041950
     37 H18         25.1140    18.7810   -20.5190 hc         1 SEQ       0.041950
     38 H19         25.8140    17.2220   -20.9290 hc         1 SEQ       0.041950
     39 H20         25.6930    19.7450   -22.5830 hc         1 SEQ       0.044700
     40 H21         25.5830    18.0650   -23.0790 hc         1 SEQ       0.044700
     41 H2          28.0610    16.7420   -22.4800 hc         1 SEQ       0.044700
@<TRIPOS>BOND
     1     1    12 ar  
     2     1    13 ar  
     3     1    21 1   
     4     2    16 1   
     5     2    17 1   
     6     2    22 1   
     7     2    41 1   
     8     3    17 1   
     9     3    18 1   
    10     3    23 1   
    11     3    24 1   
    12     4     5 1   
    13     4     6 1   
    14     4    25 1   
    15     4    26 1   
    16     5     6 1   
    17     5    27 1   
    18     5    28 1   
    19     6     7 1   
    20     6    29 1   
    21     7     8 ar  
    22     7    20 ar  
    23     8     9 ar  
    24     9    10 ar  
    25     9    13 ar  
    26    10    11 ar  
    27    10    14 ar  
    28    11    12 ar  
    29    11    30 1   
    30    12    31 1   
    31    13    32 1   
    32    14    15 1   
    33    14    20 ar  
    34    15    16 1   
    35    15    33 1   
    36    16    19 1   
    37    16    34 1   
    38    17    35 1   
    39    17    36 1   
    40    18    19 1   
    41    18    37 1   
    42    18    38 1   
    43    19    39 1   
    44    19    40 1   
@<TRIPOS>SUBSTRUCTURE
     1 SEQ         1 TEMP              0 ****  ****    0 ROOT
