@<TRIPOS>MOLECULE
SEQ
   41    44     1     0     0
SMALL
bcc


@<TRIPOS>ATOM
      1 C10         28.9840    18.1330   -29.3990 ca         1 SEQ      -0.101000
      2 C15         28.6730    17.5420   -22.2420 c6         1 SEQ      -0.088400
      3 C17         27.6350    18.7420   -20.2490 c6         1 SEQ      -0.078400
      4 C01         32.4730    20.0500   -23.4140 cx         1 SEQ      -0.108900
      5 C02         31.8060    21.3620   -23.6180 cx         1 SEQ      -0.108900
      6 C03         32.0610    20.4660   -24.8030 cx         1 SEQ      -0.187000
      7 C04         30.9340    19.7830   -25.4720 ca         1 SEQ       0.749300
      8 N05         31.0230    19.6080   -26.7650 nb         1 SEQ      -0.742000
      9 C06         29.9780    18.9760   -27.3640 ca         1 SEQ       0.454600
     10 C07         28.8520    18.5280   -26.6440 ca         1 SEQ      -0.313600
     11 C08         27.8000    17.8860   -27.3210 ca         1 SEQ      -0.088000
     12 C09         27.8630    17.6900   -28.6790 ca         1 SEQ      -0.149000
     13 C11         30.0210    18.7620   -28.7570 ca         1 SEQ      -0.184300
     14 C12         28.8870    18.7830   -25.2230 ca         1 SEQ       0.743200
     15 N13         27.8760    18.4220   -24.4250 nu         1 SEQ      -0.867900
     16 C14         27.8800    18.6130   -22.9880 c6         1 SEQ       0.237500
     17 C16         28.8470    17.9530   -20.7730 c6         1 SEQ      -0.069900
     18 C18         26.3610    18.3200   -20.9740 c6         1 SEQ      -0.069900
     19 C19         26.4360    18.6580   -22.4700 c6         1 SEQ      -0.088400
     20 N20         29.9200    19.3960   -24.6820 nb         1 SEQ      -0.830000
     21 H1          29.0290    17.9760   -30.4690 ha         1 SEQ       0.133000
     22 H3          29.6480    17.3920   -22.7100 hc         1 SEQ       0.044700
     23 H4          27.7910    19.8150   -20.3960 hc         1 SEQ       0.041700
     24 H5          27.5280    18.5970   -19.1730 hc         1 SEQ       0.041700
     25 H6          31.9010    19.2590   -22.9460 hc         1 SEQ       0.075450
     26 H7          33.5330    20.0330   -23.2000 hc         1 SEQ       0.075450
     27 H8          32.4030    22.2620   -23.5480 hc         1 SEQ       0.075450
     28 H9          30.7810    21.4690   -23.2890 hc         1 SEQ       0.075450
     29 H10         32.8550    20.7640   -25.4770 hc         1 SEQ       0.099700
     30 H11         26.9240    17.5340   -26.7900 ha         1 SEQ       0.121000
     31 H12         27.0500    17.1970   -29.1930 ha         1 SEQ       0.133000
     32 H13         30.8890    19.1080   -29.3050 ha         1 SEQ       0.151000
     33 H14         27.1220    17.8780   -24.8090 hn         1 SEQ       0.436800
     34 H15         28.3550    19.5780   -22.7970 h1         1 SEQ       0.083700
     35 H16         29.0010    17.0590   -20.1660 hc         1 SEQ       0.041950
     36 H17         29.7500    18.5580   -20.6660 hc         1 SEQ       0.041950
     37 H18         25.4870    18.7990   -20.5310 hc         1 SEQ       0.041950
     38 H19         26.2180    17.2440   -20.8440 hc         1 SEQ       0.041950
     39 H20         26.0200    19.6500   -22.6610 hc         1 SEQ       0.044700
     40 H21         25.8180    17.9490   -23.0300 hc         1 SEQ       0.044700
     41 H2          28.1390    16.5900   -22.3150 hc         1 SEQ       0.044700
@<TRIPOS>BOND
     1     1    12 ar  
     2     1    13 ar  
     3     1    21 1   
     4     2    16 1   
     5     2    17 1   
     6     2    22 1   
     7     2    41 1   
     8     3    17 1   
     9     3    18 1   
    10     3    23 1   
    11     3    24 1   
    12     4     5 1   
    13     4     6 1   
    14     4    25 1   
    15     4    26 1   
    16     5     6 1   
    17     5    27 1   
    18     5    28 1   
    19     6     7 1   
    20     6    29 1   
    21     7     8 ar  
    22     7    20 ar  
    23     8     9 ar  
    24     9    10 ar  
    25     9    13 ar  
    26    10    11 ar  
    27    10    14 ar  
    28    11    12 ar  
    29    11    30 1   
    30    12    31 1   
    31    13    32 1   
    32    14    15 1   
    33    14    20 ar  
    34    15    16 1   
    35    15    33 1   
    36    16    19 1   
    37    16    34 1   
    38    17    35 1   
    39    17    36 1   
    40    18    19 1   
    41    18    37 1   
    42    18    38 1   
    43    19    39 1   
    44    19    40 1   
@<TRIPOS>SUBSTRUCTURE
     1 SEQ         1 TEMP              0 ****  ****    0 ROOT
