@<TRIPOS>MOLECULE
SES
   31    31     1     0     0
SMALL
abcg2


@<TRIPOS>ATOM
      1 C1           5.1090     2.0880    -0.7610 c3         1 SES      -0.088100
      2 C2           4.2930     1.1330     0.1000 c3         1 SES      -0.076400
      3 C3           2.8010     1.1940    -0.2010 c3         1 SES      -0.073400
      4 C4           1.9850     0.2580     0.6890 c3         1 SES      -0.107700
      5 C11          0.4130    -4.5480     0.4950 c3         1 SES      -0.090100
      6 C12         -0.0180    -3.1240     0.8110 c3         1 SES      -0.076400
      7 N21         -0.1380     1.4860     0.5830 nc         1 SES      -0.740000
      8 C22         -1.3950     1.4430     0.2960 cd         1 SES       0.793300
      9 N22         -2.2510     2.4790     0.4690 nv         1 SES      -1.038900
     10 SE1         -1.9880    -0.2400    -0.3120 ss         1 SES      -0.330400
     11 C24         -0.1950    -0.7640    -0.0860 cd         1 SES      -0.127300
     12 C25          0.5190     0.2890     0.3840 cc         1 SES       0.340300
     13 H11          4.9680     1.8810    -1.8240 hc         1 SES       0.031367
     14 H12          4.8160     3.1250    -0.5860 hc         1 SES       0.031367
     15 H13          6.1750     2.0070    -0.5470 hc         1 SES       0.031367
     16 H21          4.6500     0.1100    -0.0490 hc         1 SES       0.035700
     17 H22          4.4600     1.3620     1.1570 hc         1 SES       0.035700
     18 H31          2.4420     2.2200    -0.0760 hc         1 SES       0.047200
     19 H32          2.6310     0.9340    -1.2510 hc         1 SES       0.047200
     20 H41          2.3640    -0.7610     0.5910 hc         1 SES       0.051700
     21 H42          2.1340     0.5390     1.7370 hc         1 SES       0.051700
     22 H111        -0.1300    -4.9410    -0.3660 hc         1 SES       0.032700
     23 H112         1.4790    -4.5980     0.2630 hc         1 SES       0.032700
     24 H113         0.2260    -5.2160     1.3360 hc         1 SES       0.032700
     25 H121        -1.0810    -3.1080     1.0660 hc         1 SES       0.044700
     26 H122         0.5130    -2.7590     1.6950 hc         1 SES       0.044700
     27 H131         1.3090    -2.1710    -0.5910 hc         1 SES       0.052200
     28 H132        -0.2540    -2.5540    -1.2520 hc         1 SES       0.052200
     29 HN21        -1.8200     3.3850     0.5770 hn         1 SES       0.479500
     30 HN22        -3.1060     2.4950    -0.0620 hn         1 SES       0.479500
     31 C13          0.2410    -2.1680    -0.3560 c3         1 SES      -0.002100
@<TRIPOS>BOND
     1     1     2 1   
     2     1    13 1   
     3     1    14 1   
     4     1    15 1   
     5     2     3 1   
     6     2    16 1   
     7     2    17 1   
     8     3     4 1   
     9     3    18 1   
    10     3    19 1   
    11     4    12 1   
    12     4    20 1   
    13     4    21 1   
    14     5     6 1   
    15     5    22 1   
    16     5    23 1   
    17     5    24 1   
    18     6    25 1   
    19     6    26 1   
    20     6    31 1   
    21     7     8 2   
    22     7    12 1   
    23     8     9 1   
    24     8    10 1   
    25     9    29 1   
    26     9    30 1   
    27    10    11 1   
    28    11    12 2   
    29    11    31 1   
    30    27    31 1   
    31    28    31 1   
@<TRIPOS>SUBSTRUCTURE
     1 SES         1 TEMP              0 ****  ****    0 ROOT
