@<TRIPOS>MOLECULE
SES
   31    31     1     0     0
SMALL
No Charge or Current Charge


@<TRIPOS>ATOM
      1 C1           5.1590     1.5660    -0.9120 c3         1 SES      -0.088100
      2 C2           4.2490     1.0460     0.2180 c3         1 SES      -0.076400
      3 C3           2.7530     1.0380    -0.1660 c3         1 SES      -0.073400
      4 C4           1.8400     0.5160     0.9660 c3         1 SES      -0.107700
      5 C11          0.7140    -4.3510     0.2490 c3         1 SES      -0.090100
      6 C12          0.1390    -2.9800     0.6530 c3         1 SES      -0.076400
      7 N21         -0.3880     1.5860     0.8420 nc         1 SES      -0.740000
      8 C22         -1.6040     1.3520     0.4430 cd         1 SES       0.793300
      9 N22         -2.4930     2.3250     0.6000 nv         1 SES      -1.038900
     10 SE1         -1.9630    -0.1850    -0.2980 ss         1 SES      -0.330400
     11 C24         -0.2720    -0.5740    -0.0260 cd         1 SES      -0.127300
     12 C25          0.3840     0.4810     0.5790 cc         1 SES       0.340300
     13 H11          5.0640     0.9380    -1.8060 hc         1 SES       0.031367
     14 H12          4.8940     2.5950    -1.1810 hc         1 SES       0.031367
     15 H13          6.2080     1.5530    -0.5940 hc         1 SES       0.031367
     16 H21          4.5610     0.0300     0.4870 hc         1 SES       0.035700
     17 H22          4.3930     1.6720     1.1070 hc         1 SES       0.035700
     18 H31          2.4430     2.0560    -0.4360 hc         1 SES       0.047200
     19 H32          2.6130     0.4150    -1.0580 hc         1 SES       0.047200
     20 H41          2.1660    -0.4890     1.2590 hc         1 SES       0.051700
     21 H42          1.9720     1.1480     1.8530 hc         1 SES       0.051700
     22 H111         0.2020    -4.7400    -0.6400 hc         1 SES       0.032700
     23 H112         1.7850    -4.2730     0.0260 hc         1 SES       0.032700
     24 H113         0.5850    -5.0750     1.0630 hc         1 SES       0.032700
     25 H121        -0.9220    -3.0960     0.9040 hc         1 SES       0.044700
     26 H122         0.6460    -2.6350     1.5630 hc         1 SES       0.044700
     27 H131         1.3450    -1.8120    -0.7200 hc         1 SES       0.052200
     28 H132        -0.2280    -2.2570    -1.3540 hc         1 SES       0.052200
     29 HN21        -2.0830     3.2330     0.7720 hn         1 SES       0.479500
     30 HN22        -3.2970     2.3020    -0.0130 hn         1 SES       0.479500
     31 C13          0.2860    -1.9110    -0.4490 c3         1 SES      -0.002100
@<TRIPOS>BOND
     1     1     2 1   
     2     1    13 1   
     3     1    14 1   
     4     1    15 1   
     5     2     3 1   
     6     2    16 1   
     7     2    17 1   
     8     3     4 1   
     9     3    18 1   
    10     3    19 1   
    11     4    12 1   
    12     4    20 1   
    13     4    21 1   
    14     5     6 1   
    15     5    22 1   
    16     5    23 1   
    17     5    24 1   
    18     6    25 1   
    19     6    26 1   
    20     6    31 1   
    21     7     8 2   
    22     7    12 1   
    23     8     9 1   
    24     8    10 1   
    25     9    29 1   
    26     9    30 1   
    27    10    11 1   
    28    11    12 2   
    29    11    31 1   
    30    27    31 1   
    31    28    31 1   
@<TRIPOS>SUBSTRUCTURE
     1 SES         1 TEMP              0 ****  ****    0 ROOT
