@<TRIPOS>MOLECULE
SET
   15    14     1     0     0
SMALL
bcc


@<TRIPOS>ATOM
      1 N            1.5180     0.6000    -0.5850 n8         1 SET      -0.871800
      2 CA           0.1140     0.4720    -0.2550 c3         1 SET       0.082500
      3 CB          -0.6700    -0.4960    -1.1480 c3         1 SET       0.097400
      4 OG          -0.6140    -0.0100    -2.4690 oh         1 SET      -0.602800
      5 C           -0.0180    -0.0050     1.1860 c          1 SET       0.674100
      6 O            0.7600    -0.8230     1.6570 o          1 SET      -0.601100
      7 H            1.6100     0.8110    -1.5700 hn         1 SET       0.357800
      8 H2           1.9810    -0.2890    -0.4390 hn         1 SET       0.357800
      9 HA          -0.3500     1.4600    -0.3490 h1         1 SET       0.075700
     10 HB2         -0.2230    -1.4950    -1.0640 h1         1 SET       0.031200
     11 HB3         -1.7060    -0.5720    -0.7910 h1         1 SET       0.031200
     12 HG          -0.9080    -0.7080    -3.0610 ho         1 SET       0.411000
     13 HNT1        -1.2540     0.1910     2.8020 hn         1 SET       0.315500
     14 HNT2        -1.6680     1.1890     1.4640 hn         1 SET       0.315500
     15 NT          -1.0590     0.4950     1.8610 nt         1 SET      -0.673000
@<TRIPOS>BOND
     1     1     2 1   
     2     1     7 1   
     3     1     8 1   
     4     2     3 1   
     5     2     5 1   
     6     2     9 1   
     7     3     4 1   
     8     3    10 1   
     9     3    11 1   
    10     4    12 1   
    11     5     6 2   
    12     5    15 1   
    13    13    15 1   
    14    14    15 1   
@<TRIPOS>SUBSTRUCTURE
     1 SET         1 TEMP              0 ****  ****    0 ROOT
