@<TRIPOS>MOLECULE
SET
   15    14     1     0     0
SMALL
No Charge or Current Charge


@<TRIPOS>ATOM
      1 N            1.6420     0.5320    -0.7130 n8         1 SET      -0.871800
      2 CA           0.2220     0.4860    -0.2080 c3         1 SET       0.082500
      3 CB          -0.6630    -0.3990    -1.1300 c3         1 SET       0.097400
      4 OG          -0.5100    -0.0100    -2.5060 oh         1 SET      -0.602800
      5 C            0.0280     0.0760     1.2970 c          1 SET       0.674100
      6 O            0.8970    -0.4500     1.9790 o          1 SET      -0.601100
      7 H            1.5990     0.6120    -1.7360 hn         1 SET       0.357800
      8 H2           2.0810    -0.3830    -0.5580 hn         1 SET       0.357800
      9 HA          -0.1740     1.5080    -0.2830 h1         1 SET       0.075700
     10 HB2         -0.3760    -1.4510    -1.0020 h1         1 SET       0.031200
     11 HB3         -1.7150    -0.3040    -0.8270 h1         1 SET       0.031200
     12 HG          -1.0890    -0.5950    -3.0420 ho         1 SET       0.411000
     13 HNT1        -1.3420     0.0880     2.8150 hn         1 SET       0.315500
     14 HNT2        -1.9060     0.7760     1.3030 hn         1 SET       0.315500
     15 NT          -1.1810     0.3330     1.8490 nt         1 SET      -0.673000
@<TRIPOS>BOND
     1     1     2 1   
     2     1     7 1   
     3     1     8 1   
     4     2     3 1   
     5     2     5 1   
     6     2     9 1   
     7     3     4 1   
     8     3    10 1   
     9     3    11 1   
    10     4    12 1   
    11     5     6 2   
    12     5    15 1   
    13    13    15 1   
    14    14    15 1   
@<TRIPOS>SUBSTRUCTURE
     1 SET         1 TEMP              0 ****  ****    0 ROOT
