@<TRIPOS>MOLECULE
SEV
   45    47     1     0     0
SMALL
No Charge or Current Charge


@<TRIPOS>ATOM
      1 C4          23.4260   -42.4390     6.8290 ca         1 SEV      -0.163000
      2 C14         24.2980   -37.0950     5.7990 c          1 SEV       0.615700
      3 C5          23.2310   -41.7050     8.0140 ca         1 SEV      -0.062000
      4 C6          22.2040   -42.0590     8.9140 ca         1 SEV       0.176000
      5 C11         20.7560   -37.1710     7.0750 ca         1 SEV      -0.119000
      6 C7          22.0630   -45.3570     4.9520 c3         1 SEV       0.148900
      7 C8          21.7420   -38.7490     9.1840 ca         1 SEV      -0.278500
      8 C9          22.6290   -38.2170     8.2210 ca         1 SEV      -0.034000
      9 C10         22.1370   -37.4330     7.1520 ca         1 SEV      -0.039000
     10 C12         19.8730   -37.6960     8.0330 ca         1 SEV      -0.102000
     11 C13         20.3610   -38.4870     9.0850 ca         1 SEV      -0.047000
     12 N1          21.9670   -41.3550    10.0990 nu         1 SEV      -0.845100
     13 N2          22.9690   -36.8710     6.1440 ns         1 SEV      -0.143000
     14 C3          22.6070   -43.5370     6.5280 ca         1 SEV       0.154100
     15 C1          21.3890   -43.1670     8.6110 ca         1 SEV      -0.062000
     16 C2          21.5830   -43.9040     7.4270 ca         1 SEV      -0.163000
     17 O1          22.8460   -44.2180     5.3520 os         1 SEV      -0.335100
     18 S1          22.3650   -39.7740    10.5290 sy         1 SEV       1.127600
     19 O2          23.8300   -39.7540    10.5650 o          1 SEV      -0.524500
     20 O3          21.5490   -39.5630    11.7270 o          1 SEV      -0.524500
     21 C15         24.8400   -36.2450     4.6590 ca         1 SEV      -0.100600
     22 O4          25.0020   -37.9280     6.3580 o          1 SEV      -0.554100
     23 C16         26.1810   -36.4180     4.2350 ca         1 SEV      -0.138000
     24 C17         26.7100   -35.6490     3.1860 ca         1 SEV       0.196000
     25 C18         25.9200   -34.6930     2.5360 ca         1 SEV      -0.179000
     26 C19         24.5930   -34.5090     2.9430 ca         1 SEV       0.196000
     27 C20         24.0510   -35.2710     3.9910 ca         1 SEV      -0.138000
     28 F1          23.8270   -33.5880     2.3200 f          1 SEV      -0.164500
     29 F2          27.9910   -35.8320     2.8000 f          1 SEV      -0.164500
     30 H1          24.2200   -42.1550     6.1430 ha         1 SEV       0.127500
     31 H2          23.8890   -40.8690     8.2230 ha         1 SEV       0.127000
     32 H3          20.3600   -36.5630     6.2640 ha         1 SEV       0.112000
     33 H4          22.4200   -45.7440     3.9890 h1         1 SEV       0.041033
     34 H5          22.1410   -46.1630     5.6920 h1         1 SEV       0.041033
     35 H6          21.0070   -45.0830     4.8370 h1         1 SEV       0.041033
     36 H7          23.6930   -38.4120     8.3200 ha         1 SEV       0.173000
     37 H8          18.8070   -37.4920     7.9590 ha         1 SEV       0.121000
     38 H9          19.6660   -38.8940     9.8180 ha         1 SEV       0.141000
     39 H10         21.1550   -41.6040    10.6480 hn         1 SEV       0.480000
     40 H11         22.5040   -36.1790     5.5740 hn         1 SEV       0.154000
     41 H12         20.5970   -43.4590     9.2950 ha         1 SEV       0.127000
     42 H13         20.9320   -44.7500     7.2280 ha         1 SEV       0.127500
     43 H14         26.8230   -37.1510     4.7180 ha         1 SEV       0.149500
     44 H15         26.3330   -34.1000     1.7260 ha         1 SEV       0.156000
     45 H16         23.0160   -35.0880     4.2670 ha         1 SEV       0.149500
@<TRIPOS>BOND
     1     1     3 ar  
     2     1    14 ar  
     3     1    30 1   
     4     2    13 1   
     5     2    21 1   
     6     2    22 2   
     7     3     4 ar  
     8     3    31 1   
     9     4    12 1   
    10     4    15 ar  
    11     5     9 ar  
    12     5    10 ar  
    13     5    32 1   
    14     6    17 1   
    15     6    33 1   
    16     6    34 1   
    17     6    35 1   
    18     7     8 ar  
    19     7    11 ar  
    20     7    18 1   
    21     8     9 ar  
    22     8    36 1   
    23     9    13 1   
    24    10    11 ar  
    25    10    37 1   
    26    11    38 1   
    27    12    18 1   
    28    12    39 1   
    29    13    40 1   
    30    14    16 ar  
    31    14    17 1   
    32    15    16 ar  
    33    15    41 1   
    34    16    42 1   
    35    18    19 2   
    36    18    20 2   
    37    21    23 ar  
    38    21    27 ar  
    39    23    24 ar  
    40    23    43 1   
    41    24    25 ar  
    42    24    29 1   
    43    25    26 ar  
    44    25    44 1   
    45    26    27 ar  
    46    26    28 1   
    47    27    45 1   
@<TRIPOS>SUBSTRUCTURE
     1 SEV         1 TEMP              0 ****  ****    0 ROOT
