@<TRIPOS>MOLECULE
SEV
   45    47     1     0     0
SMALL
bcc


@<TRIPOS>ATOM
      1 C4          24.3300   -42.4550     7.7880 ca         1 SEV      -0.181000
      2 C14         23.7200   -37.9360     5.8790 c          1 SEV       0.682700
      3 C5          23.7280   -42.1750     8.9980 ca         1 SEV      -0.080000
      4 C6          22.4010   -41.7550     9.0430 ca         1 SEV       0.037600
      5 C11         20.4930   -37.2920     7.5410 ca         1 SEV      -0.137000
      6 C7          23.6370   -42.4130     4.2250 c3         1 SEV       0.125700
      7 C8          21.5150   -38.7720     9.6080 ca         1 SEV      -0.278500
      8 C9          22.3100   -38.5490     8.4920 ca         1 SEV      -0.052000
      9 C10         21.7850   -37.8140     7.4310 ca         1 SEV       0.053600
     10 C12         19.7320   -37.5120     8.6740 ca         1 SEV      -0.120000
     11 C13         20.2290   -38.2700     9.7240 ca         1 SEV      -0.065000
     12 N1          21.8180   -41.4010    10.2910 nu         1 SEV      -0.651500
     13 N2          22.4660   -37.5630     6.2380 ns         1 SEV      -0.469100
     14 C3          23.6130   -42.3350     6.5950 ca         1 SEV       0.154100
     15 C1          21.6840   -41.6540     7.8590 ca         1 SEV      -0.080000
     16 C2          22.2740   -41.9530     6.6390 ca         1 SEV      -0.181000
     17 O1          24.2880   -42.6080     5.4650 os         1 SEV      -0.311900
     18 S1          22.1340   -39.8640    10.8600 sy         1 SEV       1.269200
     19 O2          23.5780   -39.7230    10.9150 o          1 SEV      -0.595300
     20 O3          21.3390   -39.7080    12.0640 o          1 SEV      -0.595300
     21 C15         24.1680   -37.4610     4.5290 ca         1 SEV      -0.100600
     22 O4          24.4520   -38.6170     6.5720 o          1 SEV      -0.554100
     23 C16         25.2180   -38.1520     3.9300 ca         1 SEV      -0.156000
     24 C17         25.6660   -37.7330     2.6950 ca         1 SEV       0.160900
     25 C18         25.1200   -36.6530     2.0270 ca         1 SEV      -0.197000
     26 C19         24.0860   -35.9880     2.6550 ca         1 SEV       0.160900
     27 C20         23.6020   -36.3590     3.8940 ca         1 SEV      -0.156000
     28 F1          23.5340   -34.9400     2.0380 f          1 SEV      -0.129400
     29 F2          26.6730   -38.3910     2.1120 f          1 SEV      -0.129400
     30 H1          25.3660   -42.7710     7.7570 ha         1 SEV       0.145500
     31 H2          24.2910   -42.2790     9.9160 ha         1 SEV       0.145000
     32 H3          20.0790   -36.7080     6.7280 ha         1 SEV       0.130000
     33 H4          24.3620   -42.6600     3.4540 h1         1 SEV       0.041033
     34 H5          22.7670   -43.0640     4.1110 h1         1 SEV       0.041033
     35 H6          23.3210   -41.3740     4.0920 h1         1 SEV       0.041033
     36 H7          23.3090   -38.9500     8.4440 ha         1 SEV       0.191000
     37 H8          18.7380   -37.0910     8.7360 ha         1 SEV       0.139000
     38 H9          19.6240   -38.4550    10.6010 ha         1 SEV       0.159000
     39 H10         20.8270   -41.6150    10.3680 hn         1 SEV       0.424800
     40 H11         21.9150   -37.0830     5.5420 hn         1 SEV       0.320500
     41 H12         20.6510   -41.3260     7.8820 ha         1 SEV       0.145000
     42 H13         21.6800   -41.8600     5.7400 ha         1 SEV       0.145500
     43 H14         25.6730   -39.0040     4.4170 ha         1 SEV       0.167500
     44 H15         25.4880   -36.3410     1.0580 ha         1 SEV       0.174000
     45 H16         22.8170   -35.7620     4.3410 ha         1 SEV       0.167500
@<TRIPOS>BOND
     1     1     3 ar  
     2     1    14 ar  
     3     1    30 1   
     4     2    13 1   
     5     2    21 1   
     6     2    22 2   
     7     3     4 ar  
     8     3    31 1   
     9     4    12 1   
    10     4    15 ar  
    11     5     9 ar  
    12     5    10 ar  
    13     5    32 1   
    14     6    17 1   
    15     6    33 1   
    16     6    34 1   
    17     6    35 1   
    18     7     8 ar  
    19     7    11 ar  
    20     7    18 1   
    21     8     9 ar  
    22     8    36 1   
    23     9    13 1   
    24    10    11 ar  
    25    10    37 1   
    26    11    38 1   
    27    12    18 1   
    28    12    39 1   
    29    13    40 1   
    30    14    16 ar  
    31    14    17 1   
    32    15    16 ar  
    33    15    41 1   
    34    16    42 1   
    35    18    19 2   
    36    18    20 2   
    37    21    23 ar  
    38    21    27 ar  
    39    23    24 ar  
    40    23    43 1   
    41    24    25 ar  
    42    24    29 1   
    43    25    26 ar  
    44    25    44 1   
    45    26    27 ar  
    46    26    28 1   
    47    27    45 1   
@<TRIPOS>SUBSTRUCTURE
     1 SEV         1 TEMP              0 ****  ****    0 ROOT
