@<TRIPOS>MOLECULE
SEY
    8     7     1     0     0
SMALL
No Charge or Current Charge


@<TRIPOS>ATOM
      1 SE          -0.7620    -0.0210    -0.0360 s          1 SEY      -0.771400
      2 C            0.8940    -0.0300    -0.0310 cs         1 SEY       0.524400
      3 N2           1.5890    -1.1650     0.0040 nt         1 SEY      -0.538500
      4 N1           1.6020     1.0970    -0.0620 nt         1 SEY      -0.538500
      5 H2           1.0990    -2.0470     0.0280 hn         1 SEY       0.331000
      6 H3           1.1230     1.9850    -0.0890 hn         1 SEY       0.331000
      7 H4           2.6110     1.0750    -0.0590 hn         1 SEY       0.331000
      8 H1           2.5980    -1.1540     0.0060 hn         1 SEY       0.331000
@<TRIPOS>BOND
     1     1     2 2   
     2     2     3 1   
     3     2     4 1   
     4     3     5 1   
     5     3     8 1   
     6     4     6 1   
     7     4     7 1   
@<TRIPOS>SUBSTRUCTURE
     1 SEY         1 TEMP              0 ****  ****    0 ROOT
