@<TRIPOS>MOLECULE
SEY
    8     7     1     0     0
SMALL
bcc


@<TRIPOS>ATOM
      1 SE          -0.9220    -0.0200    -0.0360 s          1 SEY      -0.771400
      2 C            0.9310    -0.0300    -0.0320 cs         1 SEY       0.658400
      3 N2           1.6080    -1.1700     0.0030 nt         1 SEY      -0.605500
      4 N1           1.6210     1.1010    -0.0660 nt         1 SEY      -0.605500
      5 H2           1.1230    -2.0500     0.0310 hn         1 SEY       0.331000
      6 H3           1.1470     1.9870    -0.0870 hn         1 SEY       0.331000
      7 H4           2.6300     1.1190    -0.0570 hn         1 SEY       0.331000
      8 H1           2.6160    -1.1980     0.0060 hn         1 SEY       0.331000
@<TRIPOS>BOND
     1     1     2 2   
     2     2     3 1   
     3     2     4 1   
     4     3     5 1   
     5     3     8 1   
     6     4     6 1   
     7     4     7 1   
@<TRIPOS>SUBSTRUCTURE
     1 SEY         1 TEMP              0 ****  ****    0 ROOT
