@<TRIPOS>MOLECULE
SEZ
   21    21     1     0     0
SMALL
No Charge or Current Charge


@<TRIPOS>ATOM
      1 C1         -20.6250    -7.7320    23.5070 c3         1 SEZ      -0.045800
      2 C2         -25.0540   -10.1990    23.7940 c3         1 SEZ      -0.045800
      3 CE         -23.1900    -8.0230    26.3460 ca         1 SEZ      -0.070300
      4 CZ1        -22.0440    -7.6630    25.6130 ca         1 SEZ      -0.114333
      5 CZ2        -24.1640    -8.8450    25.7500 ca         1 SEZ      -0.114333
      6 CH         -22.8460    -8.9470    23.7100 ca         1 SEZ      -0.114333
      7 CT1        -21.8650    -8.1250    24.2950 ca         1 SEZ      -0.070300
      8 CT2        -23.9990    -9.3080    24.4320 ca         1 SEZ      -0.070300
      9 H1         -20.7940    -6.8030    22.9510 hc         1 SEZ       0.040700
     10 H2         -19.7640    -7.5750    24.1680 hc         1 SEZ       0.040700
     11 H3         -24.8390   -11.2570    23.9860 hc         1 SEZ       0.040700
     12 H4         -26.0530    -9.9820    24.1920 hc         1 SEZ       0.040700
     13 H5         -23.9110    -6.5630    27.7770 hc         1 SEZ       0.040700
     14 H6         -23.9550    -8.2310    28.3720 hc         1 SEZ       0.040700
     15 H7         -21.2910    -7.0230    26.0670 ha         1 SEZ       0.108000
     16 H8         -25.0530    -9.1240    26.3130 ha         1 SEZ       0.108000
     17 H9         -22.7130    -9.3040    22.6910 ha         1 SEZ       0.108000
     18 H10        -20.3460    -8.5100    22.7860 hc         1 SEZ       0.040700
     19 H11        -25.0950   -10.0560    22.7080 hc         1 SEZ       0.040700
     20 H12        -22.4140    -7.3710    28.2720 hc         1 SEZ       0.040700
     21 CD         -23.3770    -7.5200    27.7690 c3         1 SEZ      -0.045800
@<TRIPOS>BOND
     1     1     7 1   
     2     1     9 1   
     3     1    10 1   
     4     1    18 1   
     5     2     8 1   
     6     2    11 1   
     7     2    12 1   
     8     2    19 1   
     9     3     4 ar  
    10     3     5 ar  
    11     3    21 1   
    12     4     7 ar  
    13     4    15 1   
    14     5     8 ar  
    15     5    16 1   
    16     6     7 ar  
    17     6     8 ar  
    18     6    17 1   
    19    13    21 1   
    20    14    21 1   
    21    20    21 1   
@<TRIPOS>SUBSTRUCTURE
     1 SEZ         1 TEMP              0 ****  ****    0 ROOT
