@<TRIPOS>MOLECULE
SEZ
   21    21     1     0     0
SMALL
abcg2


@<TRIPOS>ATOM
      1 C1         -20.6430    -7.7460    23.5230 c3         1 SEZ      -0.045800
      2 C2         -25.0350   -10.1840    23.8090 c3         1 SEZ      -0.045800
      3 CE         -23.1840    -8.0270    26.3370 ca         1 SEZ      -0.070300
      4 CZ1        -22.0470    -7.6930    25.6090 ca         1 SEZ      -0.114333
      5 CZ2        -24.1520    -8.8280    25.7340 ca         1 SEZ      -0.114333
      6 CH         -22.8500    -8.9370    23.7270 ca         1 SEZ      -0.114333
      7 CT1        -21.8660    -8.1380    24.3010 ca         1 SEZ      -0.070300
      8 CT2        -23.9990    -9.2920    24.4320 ca         1 SEZ      -0.070300
      9 H1         -20.7410    -6.7340    23.1230 hc         1 SEZ       0.040700
     10 H2         -19.7490    -7.7570    24.1480 hc         1 SEZ       0.040700
     11 H3         -24.8520   -11.2310    24.0630 hc         1 SEZ       0.040700
     12 H4         -26.0370    -9.9390    24.1590 hc         1 SEZ       0.040700
     13 H5         -24.0490    -6.6550    27.7510 hc         1 SEZ       0.040700
     14 H6         -23.8270    -8.2800    28.3790 hc         1 SEZ       0.040700
     15 H7         -21.2830    -7.0750    26.0710 ha         1 SEZ       0.108000
     16 H8         -25.0400    -9.1020    26.2940 ha         1 SEZ       0.108000
     17 H9         -22.7170    -9.2940    22.7120 ha         1 SEZ       0.108000
     18 H10        -20.4740    -8.4140    22.6800 hc         1 SEZ       0.040700
     19 H11        -25.0290   -10.1090    22.7220 hc         1 SEZ       0.040700
     20 H12        -22.4390    -7.2090    28.1880 hc         1 SEZ       0.040700
     21 CD         -23.3810    -7.5190    27.7370 c3         1 SEZ      -0.045800
@<TRIPOS>BOND
     1     1     7 1   
     2     1     9 1   
     3     1    10 1   
     4     1    18 1   
     5     2     8 1   
     6     2    11 1   
     7     2    12 1   
     8     2    19 1   
     9     3     4 ar  
    10     3     5 ar  
    11     3    21 1   
    12     4     7 ar  
    13     4    15 1   
    14     5     8 ar  
    15     5    16 1   
    16     6     7 ar  
    17     6     8 ar  
    18     6    17 1   
    19    13    21 1   
    20    14    21 1   
    21    20    21 1   
@<TRIPOS>SUBSTRUCTURE
     1 SEZ         1 TEMP              0 ****  ****    0 ROOT
