@<TRIPOS>MOLECULE
SF1
   42    45     1     0     0
SMALL
bcc


@<TRIPOS>ATOM
      1 CAJ         -3.3220    -0.0380    -0.6330 ca         1 SF1      -0.109000
      2 CAF         -3.9780    -0.0990    -1.8530 ca         1 SF1      -0.138000
      3 CAD         -4.5450     1.0470    -2.4010 ca         1 SF1      -0.134000
      4 CAG         -4.4520     2.2520    -1.7200 ca         1 SF1      -0.138000
      5 CAK         -3.7900     2.3110    -0.4990 ca         1 SF1      -0.109000
      6 CAU         -3.2210     1.1700     0.0550 ca         1 SF1      -0.102300
      7 CAQ         -2.5040     1.2400     1.3800 c3         1 SF1       0.085600
      8 NBA         -1.1250     0.8060     1.2810 na         1 SF1      -0.036400
      9 CAX         -0.6410    -0.4370     1.5800 cc         1 SF1      -0.002300
     10 CAS         -1.4820    -1.5020     2.2540 c          1 SF1       0.935800
     11 OAB         -1.9490    -1.1980     3.3640 o          1 SF1      -0.792300
     12 OAA         -1.6110    -2.5610     1.6220 o          1 SF1      -0.792300
     13 CAZ         -0.1380     1.5430     0.6730 ca         1 SF1      -0.068200
     14 CAO         -0.1650     2.8380     0.1650 ca         1 SF1      -0.124000
     15 CAN          1.0020     3.3420    -0.3800 ca         1 SF1      -0.143000
     16 CAT          2.1610     2.5580    -0.4130 ca         1 SF1       0.002400
     17 CLAC         3.6020     3.2440    -1.1070 cl         1 SF1      -0.163400
     18 CAP          2.1990     1.2700     0.0780 ca         1 SF1      -0.084000
     19 CAY          1.0250     0.7530     0.6240 ca         1 SF1      -0.042800
     20 CAW          0.6770    -0.5090     1.1950 cd         1 SF1      -0.120600
     21 SAR          1.7730    -1.8340     1.4770 ss         1 SF1      -0.173500
     22 CAV          1.8550    -2.6320    -0.1070 ca         1 SF1       0.030900
     23 CAL          0.7320    -2.7780    -0.9160 ca         1 SF1      -0.106000
     24 CAH          0.8430    -3.4300    -2.1360 ca         1 SF1      -0.139000
     25 CAE          2.0610    -3.9620    -2.5430 ca         1 SF1      -0.148000
     26 CAI          3.1750    -3.8300    -1.7250 ca         1 SF1      -0.139000
     27 CAM          3.0770    -3.1590    -0.5130 ca         1 SF1      -0.106000
     28 HAJ         -2.8890    -0.9400    -0.2150 ha         1 SF1       0.146000
     29 HAF         -4.0510    -1.0430    -2.3770 ha         1 SF1       0.123000
     30 HAD         -5.0570     0.9970    -3.3530 ha         1 SF1       0.117000
     31 HAG         -4.8880     3.1490    -2.1390 ha         1 SF1       0.123000
     32 HAK         -3.7150     3.2570     0.0250 ha         1 SF1       0.146000
     33 HAQ1        -2.5220     2.2600     1.7680 h1         1 SF1       0.079700
     34 HAQ2        -2.9950     0.6170     2.1250 h1         1 SF1       0.079700
     35 HAO         -1.0560     3.4500     0.1860 ha         1 SF1       0.126000
     36 HAN          1.0170     4.3460    -0.7810 ha         1 SF1       0.126000
     37 HAP          3.1040     0.6760     0.0440 ha         1 SF1       0.149000
     38 HAL         -0.2230    -2.3960    -0.5810 ha         1 SF1       0.150000
     39 HAH         -0.0320    -3.5360    -2.7640 ha         1 SF1       0.115000
     40 HAE          2.1410    -4.4760    -3.4930 ha         1 SF1       0.111000
     41 HAI          4.1290    -4.2360    -2.0350 ha         1 SF1       0.115000
     42 HAM          3.9550    -3.0360     0.1090 ha         1 SF1       0.150000
@<TRIPOS>BOND
     1     1     2 ar  
     2     1     6 ar  
     3     1    28 1   
     4     2     3 ar  
     5     2    29 1   
     6     3     4 ar  
     7     3    30 1   
     8     4     5 ar  
     9     4    31 1   
    10     5     6 ar  
    11     5    32 1   
    12     6     7 1   
    13     7     8 1   
    14     7    33 1   
    15     7    34 1   
    16     8     9 1   
    17     8    13 1   
    18     9    10 1   
    19     9    20 2   
    20    10    11 1   
    21    10    12 1   
    22    13    14 ar  
    23    13    19 ar  
    24    14    15 ar  
    25    14    35 1   
    26    15    16 ar  
    27    15    36 1   
    28    16    17 1   
    29    16    18 ar  
    30    18    19 ar  
    31    18    37 1   
    32    19    20 1   
    33    20    21 1   
    34    21    22 1   
    35    22    23 ar  
    36    22    27 ar  
    37    23    24 ar  
    38    23    38 1   
    39    24    25 ar  
    40    24    39 1   
    41    25    26 ar  
    42    25    40 1   
    43    26    27 ar  
    44    26    41 1   
    45    27    42 1   
@<TRIPOS>SUBSTRUCTURE
     1 SF1         1 TEMP              0 ****  ****    0 ROOT
