@<TRIPOS>MOLECULE
SF1
   42    45     1     0     0
SMALL
No Charge or Current Charge


@<TRIPOS>ATOM
      1 CAJ         -2.6870     0.1470    -1.0520 ca         1 SF1      -0.091000
      2 CAF         -3.4000    -0.0220    -2.2520 ca         1 SF1      -0.120000
      3 CAD         -4.4890     0.8120    -2.5500 ca         1 SF1      -0.116000
      4 CAG         -4.8680     1.8160    -1.6450 ca         1 SF1      -0.120000
      5 CAK         -4.1570     1.9880    -0.4440 ca         1 SF1      -0.091000
      6 CAU         -3.0590     1.1590    -0.1370 ca         1 SF1      -0.102300
      7 CAQ         -2.3130     1.3810     1.1830 c3         1 SF1       0.114900
      8 NBA         -0.9750     0.7540     1.2630 na         1 SF1      -0.065700
      9 CAX         -0.6330    -0.5220     1.7990 cc         1 SF1      -0.002300
     10 CAS         -1.4980    -1.5440     2.4920 c          1 SF1       0.725200
     11 OAB         -2.6910    -1.3070     2.6210 o          1 SF1      -0.687000
     12 OAA         -1.0140    -2.5780     2.9330 o          1 SF1      -0.687000
     13 CAZ          0.1370     1.3800     0.6960 ca         1 SF1      -0.068200
     14 CAO          0.2410     2.6230     0.0450 ca         1 SF1      -0.106000
     15 CAN          1.5070     3.0080    -0.4500 ca         1 SF1      -0.125000
     16 CAT          2.6280     2.1590    -0.2920 ca         1 SF1       0.094000
     17 ClAC         4.1950     2.6560    -0.9180 cl         1 SF1      -0.255000
     18 CAP          2.4970     0.9150     0.3570 ca         1 SF1      -0.066000
     19 CAY          1.2260     0.5680     0.8330 ca         1 SF1      -0.042800
     20 CAW          0.7360    -0.6030     1.5030 cd         1 SF1      -0.120600
     21 SAR          1.7190    -2.0460     1.8020 ss         1 SF1      -0.046600
     22 CAV          1.5740    -2.5430     0.0860 ca         1 SF1      -0.096000
     23 CAL          0.3400    -2.9740    -0.4390 ca         1 SF1      -0.088000
     24 CAH          0.2380    -3.3450    -1.7910 ca         1 SF1      -0.121000
     25 CAE          1.3700    -3.2930    -2.6220 ca         1 SF1      -0.130000
     26 CAI          2.6050    -2.8730    -2.0990 ca         1 SF1      -0.121000
     27 CAM          2.7080    -2.5000    -0.7470 ca         1 SF1      -0.088000
     28 HAJ         -1.8490    -0.5140    -0.8450 ha         1 SF1       0.128000
     29 HAF         -3.1060    -0.8020    -2.9510 ha         1 SF1       0.105000
     30 HAD         -5.0390     0.6790    -3.4790 ha         1 SF1       0.099000
     31 HAG         -5.7130     2.4630    -1.8730 ha         1 SF1       0.105000
     32 HAK         -4.4610     2.7700     0.2490 ha         1 SF1       0.128000
     33 HAQ1        -2.1940     2.4590     1.3470 h1         1 SF1       0.079700
     34 HAQ2        -2.9330     1.0230     2.0110 h1         1 SF1       0.079700
     35 HAO         -0.6200     3.2740    -0.0840 ha         1 SF1       0.108000
     36 HAN          1.6210     3.9630    -0.9570 ha         1 SF1       0.108000
     37 HAP          3.3480     0.2520     0.4790 ha         1 SF1       0.131000
     38 HAL         -0.5380    -3.0220     0.1990 ha         1 SF1       0.132000
     39 HAH         -0.7170    -3.6740    -2.1930 ha         1 SF1       0.097000
     40 HAE          1.2910    -3.5810    -3.6680 ha         1 SF1       0.093000
     41 HAI          3.4830    -2.8350    -2.7410 ha         1 SF1       0.097000
     42 HAM          3.6650    -2.1740    -0.3480 ha         1 SF1       0.132000
@<TRIPOS>BOND
     1     1     2 ar  
     2     1     6 ar  
     3     1    28 1   
     4     2     3 ar  
     5     2    29 1   
     6     3     4 ar  
     7     3    30 1   
     8     4     5 ar  
     9     4    31 1   
    10     5     6 ar  
    11     5    32 1   
    12     6     7 1   
    13     7     8 1   
    14     7    33 1   
    15     7    34 1   
    16     8     9 1   
    17     8    13 1   
    18     9    10 1   
    19     9    20 2   
    20    10    11 1   
    21    10    12 1   
    22    13    14 ar  
    23    13    19 ar  
    24    14    15 ar  
    25    14    35 1   
    26    15    16 ar  
    27    15    36 1   
    28    16    17 1   
    29    16    18 ar  
    30    18    19 ar  
    31    18    37 1   
    32    19    20 1   
    33    20    21 1   
    34    21    22 1   
    35    22    23 ar  
    36    22    27 ar  
    37    23    24 ar  
    38    23    38 1   
    39    24    25 ar  
    40    24    39 1   
    41    25    26 ar  
    42    25    40 1   
    43    26    27 ar  
    44    26    41 1   
    45    27    42 1   
@<TRIPOS>SUBSTRUCTURE
     1 SF1         1 TEMP              0 ****  ****    0 ROOT
