@<TRIPOS>MOLECULE
SF2
   46    49     1     0     0
SMALL
No Charge or Current Charge


@<TRIPOS>ATOM
      1 CAA         -6.9950    -1.8010     1.6660 c3         1 SF2       0.152900
      2 OAR         -6.0110    -1.9620     0.6300 os         1 SF2      -0.330100
      3 CAW         -4.7660    -1.3690     0.6980 ca         1 SF2       0.130100
      4 CAO         -3.8740    -1.5860    -0.3660 ca         1 SF2      -0.101000
      5 CAJ         -4.3680    -0.5650     1.7880 ca         1 SF2      -0.201000
      6 CAH         -3.0880     0.0120     1.8000 ca         1 SF2      -0.091000
      7 CAI         -2.2010    -0.2090     0.7330 ca         1 SF2      -0.134000
      8 CAV         -2.5870    -1.0130    -0.3640 ca         1 SF2      -0.074300
      9 CAQ         -1.6580    -1.2860    -1.5530 c3         1 SF2       0.118900
     10 NBC         -0.3130    -0.6770    -1.4640 na         1 SF2      -0.061700
     11 CAZ          0.0860     0.6210    -1.8940 cc         1 SF2      -0.002300
     12 CAT         -0.7020     1.6820    -2.6190 c          1 SF2       0.723200
     13 OAB         -1.8730     1.4530    -2.8910 o          1 SF2      -0.685000
     14 OAC         -0.1760     2.7360    -2.9460 o          1 SF2      -0.685000
     15 CBB          0.7330    -1.3420    -0.8170 ca         1 SF2      -0.069200
     16 CAN          0.7680    -2.6160    -0.2230 ca         1 SF2      -0.113000
     17 CAM          1.9740    -3.0330     0.3820 ca         1 SF2      -0.124000
     18 CAU          3.1060    -2.1840     0.3870 ca         1 SF2       0.091000
     19 ClAD         4.5970    -2.7220     1.1490 cl         1 SF2      -0.254000
     20 CAP          3.0440    -0.9080    -0.2080 ca         1 SF2      -0.063000
     21 CBA          1.8310    -0.5310    -0.7970 ca         1 SF2      -0.046800
     22 CAY          1.4150     0.6770    -1.4530 cd         1 SF2      -0.121600
     23 SAS          2.4240     2.1290    -1.5700 ss         1 SF2      -0.029600
     24 CAX          2.1160     2.5260     0.1510 ca         1 SF2      -0.080000
     25 CAK          0.8300     2.8980     0.5880 ca         1 SF2      -0.094500
     26 CAF          0.6010     3.1910     1.9430 ca         1 SF2      -0.114000
     27 CAE          1.6590     3.1190     2.8660 ca         1 SF2      -0.140000
     28 CAG          2.9450     2.7570     2.4320 ca         1 SF2      -0.114000
     29 CAL          3.1740     2.4630     1.0770 ca         1 SF2      -0.094500
     30 HAA1        -7.9080    -2.3540     1.4110 h1         1 SF2       0.032700
     31 HAA2        -6.6200    -2.1860     2.6230 h1         1 SF2       0.032700
     32 HAA3        -7.2600    -0.7440     1.7900 h1         1 SF2       0.032700
     33 HAO         -4.1920    -2.2070    -1.2000 ha         1 SF2       0.165000
     34 HAJ         -5.0320    -0.3770     2.6260 ha         1 SF2       0.104000
     35 HAH         -2.7800     0.6320     2.6390 ha         1 SF2       0.099000
     36 HAI         -1.2170     0.2500     0.7740 ha         1 SF2       0.110000
     37 HAQ1        -1.5430    -2.3700    -1.6680 h1         1 SF2       0.078700
     38 HAQ2        -2.1440    -0.9430    -2.4720 h1         1 SF2       0.078700
     39 HAN         -0.1020    -3.2680    -0.2170 ha         1 SF2       0.105000
     40 HAM          2.0330    -4.0130     0.8490 ha         1 SF2       0.108000
     41 HAP          3.9030    -0.2440    -0.2040 ha         1 SF2       0.132000
     42 HAK          0.0080     2.9600    -0.1200 ha         1 SF2       0.125000
     43 HAF         -0.3940     3.4730     2.2770 ha         1 SF2       0.095000
     44 HAE          1.4820     3.3460     3.9150 ha         1 SF2       0.092000
     45 HAG          3.7650     2.7040     3.1450 ha         1 SF2       0.095000
     46 HAL          4.1710     2.1820     0.7460 ha         1 SF2       0.125000
@<TRIPOS>BOND
     1     1     2 1   
     2     1    30 1   
     3     1    31 1   
     4     1    32 1   
     5     2     3 1   
     6     3     4 ar  
     7     3     5 ar  
     8     4     8 ar  
     9     4    33 1   
    10     5     6 ar  
    11     5    34 1   
    12     6     7 ar  
    13     6    35 1   
    14     7     8 ar  
    15     7    36 1   
    16     8     9 1   
    17     9    10 1   
    18     9    37 1   
    19     9    38 1   
    20    10    11 1   
    21    10    15 1   
    22    11    12 1   
    23    11    22 2   
    24    12    13 1   
    25    12    14 1   
    26    15    16 ar  
    27    15    21 ar  
    28    16    17 ar  
    29    16    39 1   
    30    17    18 ar  
    31    17    40 1   
    32    18    19 1   
    33    18    20 ar  
    34    20    21 ar  
    35    20    41 1   
    36    21    22 1   
    37    22    23 1   
    38    23    24 1   
    39    24    25 ar  
    40    24    29 ar  
    41    25    26 ar  
    42    25    42 1   
    43    26    27 ar  
    44    26    43 1   
    45    27    28 ar  
    46    27    44 1   
    47    28    29 ar  
    48    28    45 1   
    49    29    46 1   
@<TRIPOS>SUBSTRUCTURE
     1 SF2         1 TEMP              0 ****  ****    0 ROOT
