@<TRIPOS>MOLECULE
SF2
   46    49     1     0     0
SMALL
bcc


@<TRIPOS>ATOM
      1 CAA         -6.1100     0.5320     1.5620 c3         1 SF2       0.129700
      2 OAR         -5.2460     0.2630     0.4770 os         1 SF2      -0.306900
      3 CAW         -4.2980    -0.6820     0.6290 ca         1 SF2       0.130100
      4 CAO         -3.4500    -0.8810    -0.4630 ca         1 SF2      -0.119000
      5 CAJ         -4.1280    -1.4440     1.7810 ca         1 SF2      -0.219000
      6 CAH         -3.1160    -2.3980     1.8210 ca         1 SF2      -0.109000
      7 CAI         -2.2750    -2.5950     0.7410 ca         1 SF2      -0.152000
      8 CAV         -2.4390    -1.8270    -0.4130 ca         1 SF2      -0.074300
      9 CAQ         -1.5070    -1.9940    -1.5860 c3         1 SF2       0.089600
     10 NBC         -0.2730    -1.2440    -1.4090 na         1 SF2      -0.032400
     11 CAZ         -0.1090     0.1030    -1.5960 cc         1 SF2      -0.002300
     12 CAT         -1.1360     1.0020    -2.2580 c          1 SF2       0.933800
     13 OAB         -1.7430     0.5200    -3.2330 o          1 SF2      -0.790300
     14 OAC         -1.2380     2.1360    -1.7740 o          1 SF2      -0.790300
     15 CBB          0.8530    -1.7620    -0.8180 ca         1 SF2      -0.069200
     16 CAN          1.1540    -3.0640    -0.4240 ca         1 SF2      -0.131000
     17 CAM          2.3960    -3.3030     0.1320 ca         1 SF2      -0.142000
     18 CAU          3.3120    -2.2560     0.2930 ca         1 SF2      -0.000600
     19 CLAD         4.8600    -2.6130     1.0020 cl         1 SF2      -0.162400
     20 CAP          3.0290    -0.9620    -0.0890 ca         1 SF2      -0.081000
     21 CBA          1.7760    -0.7130    -0.6500 ca         1 SF2      -0.046800
     22 CAY          1.1400     0.4650    -1.1410 cd         1 SF2      -0.121600
     23 SAS          1.9060     2.0240    -1.2490 ss         1 SF2      -0.156500
     24 CAX          1.5360     2.7880     0.3050 ca         1 SF2       0.046900
     25 CAK          0.4560     2.4140     1.0980 ca         1 SF2      -0.112500
     26 CAF          0.2250     3.0700     2.3000 ca         1 SF2      -0.132000
     27 CAE          1.0470     4.1120     2.7090 ca         1 SF2      -0.158000
     28 CAG          2.1140     4.4930     1.9060 ca         1 SF2      -0.132000
     29 CAL          2.3650     3.8320     0.7130 ca         1 SF2      -0.112500
     30 HAA1        -6.7780     1.3270     1.2370 h1         1 SF2       0.032700
     31 HAA2        -6.7100    -0.3410     1.8340 h1         1 SF2       0.032700
     32 HAA3        -5.5630     0.8720     2.4450 h1         1 SF2       0.032700
     33 HAO         -3.5950    -0.2870    -1.3580 ha         1 SF2       0.183000
     34 HAJ         -4.7680    -1.3190     2.6440 ha         1 SF2       0.122000
     35 HAH         -2.9940    -2.9960     2.7150 ha         1 SF2       0.117000
     36 HAI         -1.5010    -3.3500     0.7930 ha         1 SF2       0.128000
     37 HAQ1        -1.2400    -3.0420    -1.7180 h1         1 SF2       0.078700
     38 HAQ2        -1.9770    -1.6630    -2.5070 h1         1 SF2       0.078700
     39 HAN          0.4580    -3.8830    -0.5470 ha         1 SF2       0.123000
     40 HAM          2.6620    -4.3040     0.4420 ha         1 SF2       0.126000
     41 HAP          3.7480    -0.1630     0.0390 ha         1 SF2       0.150000
     42 HAK         -0.2020     1.6200     0.7750 ha         1 SF2       0.143000
     43 HAF         -0.6120     2.7650     2.9160 ha         1 SF2       0.113000
     44 HAE          0.8590     4.6200     3.6460 ha         1 SF2       0.110000
     45 HAG          2.7650     5.3010     2.2140 ha         1 SF2       0.113000
     46 HAL          3.2120     4.1270     0.1040 ha         1 SF2       0.143000
@<TRIPOS>BOND
     1     1     2 1   
     2     1    30 1   
     3     1    31 1   
     4     1    32 1   
     5     2     3 1   
     6     3     4 ar  
     7     3     5 ar  
     8     4     8 ar  
     9     4    33 1   
    10     5     6 ar  
    11     5    34 1   
    12     6     7 ar  
    13     6    35 1   
    14     7     8 ar  
    15     7    36 1   
    16     8     9 1   
    17     9    10 1   
    18     9    37 1   
    19     9    38 1   
    20    10    11 1   
    21    10    15 1   
    22    11    12 1   
    23    11    22 2   
    24    12    13 1   
    25    12    14 1   
    26    15    16 ar  
    27    15    21 ar  
    28    16    17 ar  
    29    16    39 1   
    30    17    18 ar  
    31    17    40 1   
    32    18    19 1   
    33    18    20 ar  
    34    20    21 ar  
    35    20    41 1   
    36    21    22 1   
    37    22    23 1   
    38    23    24 1   
    39    24    25 ar  
    40    24    29 ar  
    41    25    26 ar  
    42    25    42 1   
    43    26    27 ar  
    44    26    43 1   
    45    27    28 ar  
    46    27    44 1   
    47    28    29 ar  
    48    28    45 1   
    49    29    46 1   
@<TRIPOS>SUBSTRUCTURE
     1 SF2         1 TEMP              0 ****  ****    0 ROOT
