@<TRIPOS>MOLECULE
SF5
   49    50     1     0     0
SMALL
bcc


@<TRIPOS>ATOM
      1 N1           6.3430    -0.3880    -0.0120 ns         1 SF5      -0.453400
      2 O2           7.4370    -1.0240    -0.5120 oh         1 SF5      -0.383100
      3 C3           5.3170    -0.0820    -0.8250 c          1 SF5       0.668100
      4 O4           5.2080    -0.5040    -1.9620 o          1 SF5      -0.565100
      5 C5           4.2910     0.8300    -0.1880 c3         1 SF5      -0.160400
      6 C6           2.8760     0.2760    -0.3800 c3         1 SF5      -0.087000
      7 C7           2.6400    -0.9890     0.4620 c3         1 SF5      -0.074400
      8 C8           1.3100    -1.6780     0.1830 c3         1 SF5      -0.080400
      9 C9           1.0780    -2.8870     1.0820 c3         1 SF5      -0.073400
     10 C10         -0.2430    -3.5850     0.7890 c3         1 SF5      -0.089100
     11 C12          1.8470     1.2980    -0.0540 cc         1 SF5       0.534700
     12 O13          1.9420     1.9750     1.0830 os         1 SF5      -0.141100
     13 N14          0.7830     1.6030    -0.7180 nd         1 SF5      -0.712000
     14 N15          0.8370     2.7850     1.1710 nc         1 SF5      -0.374300
     15 C16          0.1790     2.5270     0.0860 cd         1 SF5       0.556300
     16 H1           6.4890     0.0750     0.8740 hn         1 SF5       0.336500
     17 H2           7.3290    -1.9590    -0.2950 ho         1 SF5       0.408000
     18 H3           4.5000     0.9880     0.8720 hc         1 SF5       0.074200
     19 H4           4.3880     1.8030    -0.6780 hc         1 SF5       0.074200
     20 H5           2.7320     0.0320    -1.4350 hc         1 SF5       0.110700
     21 H6           3.4520    -1.6930     0.2590 hc         1 SF5       0.050700
     22 H7           2.7190    -0.7350     1.5240 hc         1 SF5       0.050700
     23 H8           0.4790    -0.9780     0.3140 hc         1 SF5       0.049700
     24 H9           1.2790    -1.9890    -0.8660 hc         1 SF5       0.049700
     25 H10          1.9040    -3.5950     0.9630 hc         1 SF5       0.036200
     26 H11          1.1010    -2.5660     2.1270 hc         1 SF5       0.036200
     27 H12         -1.0850    -2.8990     0.9070 hc         1 SF5       0.034367
     28 H13         -0.2700    -3.9640    -0.2340 hc         1 SF5       0.034367
     29 H14         -0.4080    -4.4290     1.4590 hc         1 SF5       0.034367
     30 C1          -1.1470     3.1250    -0.2270 c3         1 SF5      -0.060400
     31 C2          -2.2040     2.0500    -0.1640 ca         1 SF5      -0.059300
     32 C4          -2.8030     1.7290     1.0510 ca         1 SF5      -0.129500
     33 C11         -3.7340     0.7090     1.1290 ca         1 SF5      -0.075000
     34 C13         -4.0820    -0.0150    -0.0100 ca         1 SF5      -0.139600
     35 C14         -3.4860     0.3050    -1.2280 ca         1 SF5      -0.075000
     36 C15         -2.5560     1.3300    -1.3000 ca         1 SF5      -0.129500
     37 C17         -5.0860    -1.1000     0.1260 c          1 SF5       0.654700
     38 O1          -5.6370    -1.3780     1.1640 o          1 SF5      -0.539000
     39 O3          -5.3120    -1.7340    -1.0130 os         1 SF5      -0.416900
     40 C20         -6.2700    -2.7920    -1.0020 c3         1 SF5       0.130700
     41 H15         -1.3620     3.9190     0.4870 hc         1 SF5       0.077700
     42 H16         -1.1120     3.5690    -1.2230 hc         1 SF5       0.077700
     43 H17         -2.5390     2.2820     1.9450 ha         1 SF5       0.142500
     44 H18         -4.1920     0.4750     2.0810 ha         1 SF5       0.152500
     45 H19         -3.7390    -0.2360    -2.1290 ha         1 SF5       0.152500
     46 H20         -2.1000     1.5700    -2.2520 ha         1 SF5       0.142500
     47 H21         -5.9700    -3.5940    -0.3270 h1         1 SF5       0.049033
     48 H22         -7.2580    -2.4310    -0.7160 h1         1 SF5       0.049033
     49 H23         -6.3050    -3.1720    -2.0180 h1         1 SF5       0.049033
@<TRIPOS>BOND
     1     1     2 1   
     2     1     3 1   
     3     1    16 1   
     4     2    17 1   
     5     3     4 2   
     6     3     5 1   
     7     5     6 1   
     8     5    18 1   
     9     5    19 1   
    10     6     7 1   
    11     6    11 1   
    12     6    20 1   
    13     7     8 1   
    14     7    21 1   
    15     7    22 1   
    16     8     9 1   
    17     8    23 1   
    18     8    24 1   
    19     9    10 1   
    20     9    25 1   
    21     9    26 1   
    22    10    27 1   
    23    10    28 1   
    24    10    29 1   
    25    11    12 1   
    26    11    13 2   
    27    12    14 1   
    28    13    15 1   
    29    14    15 2   
    30    15    30 1   
    31    30    31 1   
    32    30    41 1   
    33    30    42 1   
    34    31    32 ar  
    35    31    36 ar  
    36    32    33 ar  
    37    32    43 1   
    38    33    34 ar  
    39    33    44 1   
    40    34    35 ar  
    41    34    37 1   
    42    35    36 ar  
    43    35    45 1   
    44    36    46 1   
    45    37    38 2   
    46    37    39 1   
    47    39    40 1   
    48    40    47 1   
    49    40    48 1   
    50    40    49 1   
@<TRIPOS>SUBSTRUCTURE
     1 SF5         1 TEMP              0 ****  ****    0 ROOT
