@<TRIPOS>MOLECULE
SF5
   49    50     1     0     0
SMALL
No Charge or Current Charge


@<TRIPOS>ATOM
      1 N1           6.5100    -0.2020     0.2530 ns         1 SF5      -0.386400
      2 O2           7.8280    -0.6660    -0.1300 oh         1 SF5      -0.422100
      3 C3           5.6320     0.3170    -0.6920 c          1 SF5       0.601100
      4 O4           5.8270     0.2220    -1.8960 o          1 SF5      -0.565100
      5 C5           4.4090     1.0450    -0.1180 c3         1 SF5      -0.160400
      6 C6           3.0740     0.2750    -0.3580 c3         1 SF5      -0.087000
      7 C7           3.0500    -1.1040     0.3620 c3         1 SF5      -0.074400
      8 C8           1.7730    -1.9340     0.0880 c3         1 SF5      -0.080400
      9 C9           1.7940    -3.3180     0.7720 c3         1 SF5      -0.073400
     10 C10          0.5200    -4.1420     0.5040 c3         1 SF5      -0.089100
     11 C12          1.8790     1.1260     0.0030 cc         1 SF5       0.490300
     12 O13          1.6960     1.5170     1.2950 os         1 SF5      -0.096700
     13 N14          0.9320     1.5360    -0.8120 nd         1 SF5      -0.712000
     14 N15          0.4910     2.2530     1.3040 nc         1 SF5      -0.374300
     15 C16          0.0990     2.2230     0.0400 cd         1 SF5       0.556300
     16 H1           6.3860     0.0370     1.2360 hn         1 SF5       0.336500
     17 H2           7.8930    -1.5570     0.2890 ho         1 SF5       0.447000
     18 H3           4.5380     1.2070     0.9590 hc         1 SF5       0.074200
     19 H4           4.3370     2.0170    -0.6200 hc         1 SF5       0.074200
     20 H5           3.0060     0.0770    -1.4360 hc         1 SF5       0.110700
     21 H6           3.9180    -1.6960     0.0460 hc         1 SF5       0.050700
     22 H7           3.1530    -0.9510     1.4450 hc         1 SF5       0.050700
     23 H8           0.8910    -1.3820     0.4370 hc         1 SF5       0.049700
     24 H9           1.6560    -2.0700    -0.9950 hc         1 SF5       0.049700
     25 H10          2.6650    -3.8850     0.4200 hc         1 SF5       0.036200
     26 H11          1.9120    -3.1870     1.8540 hc         1 SF5       0.036200
     27 H12         -0.3680    -3.6160     0.8770 hc         1 SF5       0.034367
     28 H13          0.3910    -4.3200    -0.5710 hc         1 SF5       0.034367
     29 H14          0.5800    -5.1130     1.0080 hc         1 SF5       0.034367
     30 C1          -1.1790     2.8730    -0.4160 c3         1 SF5      -0.060400
     31 C2          -2.4020     1.9770    -0.2610 ca         1 SF5      -0.059300
     32 C4          -3.2540     2.1150     0.8490 ca         1 SF5      -0.111500
     33 C11         -4.3750     1.2800     0.9950 ca         1 SF5      -0.057000
     34 C13         -4.6630     0.2880     0.0310 ca         1 SF5      -0.139600
     35 C14         -3.8010     0.1520    -1.0820 ca         1 SF5      -0.057000
     36 C15         -2.6820     0.9910    -1.2230 ca         1 SF5      -0.111500
     37 C17         -5.8730    -0.6030     0.2060 c          1 SF5       0.605700
     38 O1          -6.6370    -0.5070     1.1590 o          1 SF5      -0.490000
     39 O3          -6.0340    -1.5230    -0.8000 os         1 SF5      -0.440100
     40 C20         -7.1570    -2.4210    -0.7280 c3         1 SF5       0.153900
     41 H15         -1.3230     3.8080     0.1370 hc         1 SF5       0.077700
     42 H16         -1.0720     3.1730    -1.4650 hc         1 SF5       0.077700
     43 H17         -3.0480     2.8700     1.6060 ha         1 SF5       0.124500
     44 H18         -5.0190     1.4060     1.8630 ha         1 SF5       0.134500
     45 H19         -3.9900    -0.6010    -1.8440 ha         1 SF5       0.134500
     46 H20         -2.0280     0.8680    -2.0840 ha         1 SF5       0.124500
     47 H21         -7.1120    -3.0330     0.1830 h1         1 SF5       0.049033
     48 H22         -8.1030    -1.8650    -0.7280 h1         1 SF5       0.049033
     49 H23         -7.1600    -3.0980    -1.5920 h1         1 SF5       0.049033
@<TRIPOS>BOND
     1     1     2 1   
     2     1     3 1   
     3     1    16 1   
     4     2    17 1   
     5     3     4 2   
     6     3     5 1   
     7     5     6 1   
     8     5    18 1   
     9     5    19 1   
    10     6     7 1   
    11     6    11 1   
    12     6    20 1   
    13     7     8 1   
    14     7    21 1   
    15     7    22 1   
    16     8     9 1   
    17     8    23 1   
    18     8    24 1   
    19     9    10 1   
    20     9    25 1   
    21     9    26 1   
    22    10    27 1   
    23    10    28 1   
    24    10    29 1   
    25    11    12 1   
    26    11    13 2   
    27    12    14 1   
    28    13    15 1   
    29    14    15 2   
    30    15    30 1   
    31    30    31 1   
    32    30    41 1   
    33    30    42 1   
    34    31    32 ar  
    35    31    36 ar  
    36    32    33 ar  
    37    32    43 1   
    38    33    34 ar  
    39    33    44 1   
    40    34    35 ar  
    41    34    37 1   
    42    35    36 ar  
    43    35    45 1   
    44    36    46 1   
    45    37    38 2   
    46    37    39 1   
    47    39    40 1   
    48    40    47 1   
    49    40    48 1   
    50    40    49 1   
@<TRIPOS>SUBSTRUCTURE
     1 SF5         1 TEMP              0 ****  ****    0 ROOT
