@<TRIPOS>MOLECULE
SF6
   24    24     1     0     0
SMALL
No Charge or Current Charge


@<TRIPOS>ATOM
      1 C1          -5.3230    22.1260    -6.6830 c3         1 SF6       0.150600
      2 O1          -6.7330    22.3840    -6.8890 oh         1 SF6      -0.689000
      3 C2          -4.3760    23.1690    -7.3890 c5         1 SF6       0.380000
      4 O2          -4.6120    23.2110    -8.7880 oh         1 SF6      -0.708000
      5 C3          -2.8340    22.8490    -7.2010 c5         1 SF6       0.103300
      6 O3          -2.0780    23.0930    -8.4110 oh         1 SF6      -0.709000
      7 C4          -2.4440    23.9030    -6.1280 c5         1 SF6       0.113300
      8 O4          -1.0370    24.1920    -6.1120 oh         1 SF6      -0.714000
      9 C5          -3.2920    25.0990    -6.6330 c5         1 SF6       0.141300
     10 O5          -4.5810    24.4850    -6.8170 os         1 SF6      -0.420000
     11 C6          -3.3650    26.2930    -5.6470 c3         1 SF6       0.147600
     12 O6          -2.0370    26.7530    -5.3190 oh         1 SF6      -0.728000
     13 H11         -5.0960    22.1310    -5.6080 h1         1 SF6       0.026700
     14 H12         -5.0690    21.1250    -7.0570 h1         1 SF6       0.026700
     15 HO1         -7.2290    21.6670    -6.4300 ho         1 SF6       0.499000
     16 HO2         -3.6750    23.1930    -9.1150 ho         1 SF6       0.520000
     17 H3          -2.6680    21.8260    -6.8320 h1         1 SF6       0.076700
     18 HO3         -1.2010    23.4200    -8.0820 ho         1 SF6       0.532000
     19 H4          -2.7840    23.5890    -5.1300 h1         1 SF6       0.063700
     20 HO4         -0.9810    25.1150    -5.7440 ho         1 SF6       0.519000
     21 H5          -2.9330    25.4700    -7.6040 h1         1 SF6       0.090700
     22 H61         -3.9490    27.0990    -6.1110 h1         1 SF6       0.033700
     23 H62         -3.8920    25.9730    -4.7370 h1         1 SF6       0.033700
     24 HO6         -2.1430    27.5690    -4.7700 ho         1 SF6       0.511000
@<TRIPOS>BOND
     1     1     2 1   
     2     1     3 1   
     3     1    13 1   
     4     1    14 1   
     5     2    15 1   
     6     3     4 1   
     7     3     5 1   
     8     3    10 1   
     9     4    16 1   
    10     5     6 1   
    11     5     7 1   
    12     5    17 1   
    13     6    18 1   
    14     7     8 1   
    15     7     9 1   
    16     7    19 1   
    17     8    20 1   
    18     9    10 1   
    19     9    11 1   
    20     9    21 1   
    21    11    12 1   
    22    11    22 1   
    23    11    23 1   
    24    12    24 1   
@<TRIPOS>SUBSTRUCTURE
     1 SF6         1 TEMP              0 ****  ****    0 ROOT
