@<TRIPOS>MOLECULE
SF6
   24    24     1     0     0
SMALL
abcg2


@<TRIPOS>ATOM
      1 C1          -5.2640    22.3110    -6.8710 c3         1 SF6       0.150600
      2 O1          -6.4530    22.5910    -7.5640 oh         1 SF6      -0.689000
      3 C2          -4.1710    23.2730    -7.3130 c5         1 SF6       0.380000
      4 O2          -3.9950    23.2570    -8.7030 oh         1 SF6      -0.708000
      5 C3          -2.8450    23.0090    -6.5760 c5         1 SF6       0.103300
      6 O3          -2.0780    21.9820    -7.1250 oh         1 SF6      -0.709000
      7 C4          -2.1670    24.3840    -6.6050 c5         1 SF6       0.113300
      8 O4          -1.3810    24.4660    -7.7730 oh         1 SF6      -0.714000
      9 C5          -3.3630    25.3420    -6.6080 c5         1 SF6       0.141300
     10 O5          -4.5150    24.5720    -6.9550 os         1 SF6      -0.420000
     11 C6          -3.6200    25.9740    -5.2510 c3         1 SF6       0.147600
     12 O6          -2.5480    26.8450    -4.9810 oh         1 SF6      -0.728000
     13 H11         -5.3860    22.4040    -5.7840 h1         1 SF6       0.026700
     14 H12         -4.9090    21.2880    -7.0610 h1         1 SF6       0.026700
     15 HO1         -7.1170    21.9540    -7.2840 ho         1 SF6       0.499000
     16 HO2         -3.6620    22.3910    -8.9650 ho         1 SF6       0.520000
     17 H3          -3.0700    22.7510    -5.5350 h1         1 SF6       0.076700
     18 HO3         -1.4810    22.3920    -7.7670 ho         1 SF6       0.532000
     19 H4          -1.5450    24.5320    -5.7170 h1         1 SF6       0.063700
     20 HO4         -0.6130    25.0140    -7.5930 ho         1 SF6       0.519000
     21 H5          -3.2090    26.1340    -7.3500 h1         1 SF6       0.090700
     22 H61         -4.5810    26.5050    -5.2780 h1         1 SF6       0.033700
     23 H62         -3.7110    25.1840    -4.4920 h1         1 SF6       0.033700
     24 HO6         -2.6470    27.1810    -4.0860 ho         1 SF6       0.511000
@<TRIPOS>BOND
     1     1     2 1   
     2     1     3 1   
     3     1    13 1   
     4     1    14 1   
     5     2    15 1   
     6     3     4 1   
     7     3     5 1   
     8     3    10 1   
     9     4    16 1   
    10     5     6 1   
    11     5     7 1   
    12     5    17 1   
    13     6    18 1   
    14     7     8 1   
    15     7     9 1   
    16     7    19 1   
    17     8    20 1   
    18     9    10 1   
    19     9    11 1   
    20     9    21 1   
    21    11    12 1   
    22    11    22 1   
    23    11    23 1   
    24    12    24 1   
@<TRIPOS>SUBSTRUCTURE
     1 SF6         1 TEMP              0 ****  ****    0 ROOT
