@<TRIPOS>MOLECULE
SF7
   43    44     1     0     0
SMALL
No Charge or Current Charge


@<TRIPOS>ATOM
      1 O4           0.1090    -1.9870    -1.1110 o          1 SF7      -0.556100
      2 C3           1.1890    -2.2380    -0.5930 c          1 SF7       0.598100
      3 N1           1.3850    -3.3390     0.2330 ns         1 SF7      -0.385400
      4 O2           0.3880    -4.3850     0.3310 oh         1 SF7      -0.423100
      5 C5           2.4370    -1.3760    -0.8370 c3         1 SF7      -0.164400
      6 C6           2.4190    -0.0490    -0.0140 c3         1 SF7      -0.079000
      7 C7           3.6810     0.8280    -0.2550 c3         1 SF7      -0.078400
      8 C8           5.0160     0.1960     0.2090 c3         1 SF7      -0.076400
      9 C9           6.2170     1.1560     0.0610 c3         1 SF7      -0.076400
     10 C10          7.5500     0.5290     0.5170 c3         1 SF7      -0.089100
     11 C12          1.1580     0.7570    -0.2440 cc         1 SF7       0.504300
     12 O13          0.8890     1.2500    -1.4850 os         1 SF7      -0.092700
     13 N15         -0.3280     1.9550    -1.3600 nc         1 SF7      -0.378300
     14 C16         -0.6410     1.8110    -0.0810 cd         1 SF7       0.561300
     15 N14          0.2600     1.0830     0.6610 nd         1 SF7      -0.709000
     16 H1           2.3320    -3.5920     0.5120 hn         1 SF7       0.331500
     17 H2           0.2720    -4.5070     1.3030 ho         1 SF7       0.448000
     18 H3           3.3240    -1.9520    -0.5540 hc         1 SF7       0.073700
     19 H4           2.4830    -1.1280    -1.9050 hc         1 SF7       0.073700
     20 H5           2.4220    -0.3290     1.0470 hc         1 SF7       0.092700
     21 H6           3.7530     1.0810    -1.3210 hc         1 SF7       0.056200
     22 H7           3.5490     1.7780     0.2800 hc         1 SF7       0.056200
     23 H8           4.9280    -0.1100     1.2590 hc         1 SF7       0.039200
     24 H9           5.2210    -0.7090    -0.3760 hc         1 SF7       0.039200
     25 H10          6.3090     1.4650    -0.9870 hc         1 SF7       0.041200
     26 H11          6.0330     2.0640     0.6480 hc         1 SF7       0.041200
     27 H12          8.3700     1.2460     0.3950 hc         1 SF7       0.034033
     28 H13          7.5010     0.2400     1.5740 hc         1 SF7       0.034033
     29 H14          7.7820    -0.3630    -0.0760 hc         1 SF7       0.034033
     30 C1          -1.8920     2.4080     0.5080 c3         1 SF7      -0.053400
     31 C2          -3.1230     1.5190     0.3600 ca         1 SF7      -0.097300
     32 C4          -3.3660     0.4880     1.2900 ca         1 SF7      -0.065000
     33 C11         -4.4960    -0.3370     1.1520 ca         1 SF7      -0.152000
     34 C13         -5.3830    -0.1340     0.0840 ca         1 SF7       0.173000
     35 C14         -5.1480     0.8880    -0.8480 ca         1 SF7      -0.152000
     36 C15         -4.0180     1.7150    -0.7120 ca         1 SF7      -0.065000
     37 F1          -6.4680    -0.9270    -0.0480 f          1 SF7      -0.182000
     38 H15         -1.7190     2.6230     1.5680 hc         1 SF7       0.071700
     39 H16         -2.0760     3.3840     0.0440 hc         1 SF7       0.071700
     40 H17         -2.6780     0.3250     2.1170 ha         1 SF7       0.120000
     41 H18         -4.6840    -1.1320     1.8680 ha         1 SF7       0.131000
     42 H19         -5.8390     1.0380    -1.6740 ha         1 SF7       0.131000
     43 H20         -3.8390     2.5040    -1.4390 ha         1 SF7       0.120000
@<TRIPOS>BOND
     1     1     2 2   
     2     2     3 1   
     3     2     5 1   
     4     3     4 1   
     5     3    16 1   
     6     4    17 1   
     7     5     6 1   
     8     5    18 1   
     9     5    19 1   
    10     6     7 1   
    11     6    11 1   
    12     6    20 1   
    13     7     8 1   
    14     7    21 1   
    15     7    22 1   
    16     8     9 1   
    17     8    23 1   
    18     8    24 1   
    19     9    10 1   
    20     9    25 1   
    21     9    26 1   
    22    10    27 1   
    23    10    28 1   
    24    10    29 1   
    25    11    12 1   
    26    11    15 2   
    27    12    13 1   
    28    13    14 2   
    29    14    15 1   
    30    14    30 1   
    31    30    31 1   
    32    30    38 1   
    33    30    39 1   
    34    31    32 ar  
    35    31    36 ar  
    36    32    33 ar  
    37    32    40 1   
    38    33    34 ar  
    39    33    41 1   
    40    34    35 ar  
    41    34    37 1   
    42    35    36 ar  
    43    35    42 1   
    44    36    43 1   
@<TRIPOS>SUBSTRUCTURE
     1 SF7         1 TEMP              0 ****  ****    0 ROOT
