@<TRIPOS>MOLECULE
SF7
   43    44     1     0     0
SMALL
bcc


@<TRIPOS>ATOM
      1 O4           0.1240    -1.8750    -1.1310 o          1 SF7      -0.556100
      2 C3           1.2740    -2.2370    -1.3060 c          1 SF7       0.665100
      3 N1           1.6200    -3.5010    -1.6120 ns         1 SF7      -0.452400
      4 O2           0.6620    -4.3910    -1.9960 oh         1 SF7      -0.384100
      5 C5           2.4610    -1.3080    -1.1840 c3         1 SF7      -0.164400
      6 C6           2.2040    -0.1510    -0.2210 c3         1 SF7      -0.079000
      7 C7           3.4330     0.7670    -0.0890 c3         1 SF7      -0.078400
      8 C8           4.6110     0.1010     0.6110 c3         1 SF7      -0.076400
      9 C9           5.7930     1.0470     0.7880 c3         1 SF7      -0.076400
     10 C10          6.9650     0.3860     1.5010 c3         1 SF7      -0.089100
     11 C12          1.0230     0.6640    -0.6190 cc         1 SF7       0.548700
     12 O13          0.8720     1.0100    -1.8890 os         1 SF7      -0.137100
     13 N15         -0.2520     1.7970    -1.9650 nc         1 SF7      -0.378300
     14 C16         -0.6600     1.8690    -0.7370 cd         1 SF7       0.561300
     15 N14          0.1170     1.1770     0.1440 nd         1 SF7      -0.709000
     16 H1           2.5580    -3.7420    -1.8990 hn         1 SF7       0.331500
     17 H2           0.4800    -4.9380    -1.2210 ho         1 SF7       0.409000
     18 H3           3.3400    -1.8620    -0.8520 hc         1 SF7       0.073700
     19 H4           2.7050    -0.9290    -2.1820 hc         1 SF7       0.073700
     20 H5           1.9700    -0.5500     0.7690 hc         1 SF7       0.092700
     21 H6           3.7360     1.1180    -1.0800 hc         1 SF7       0.056200
     22 H7           3.1440     1.6560     0.4800 hc         1 SF7       0.056200
     23 H8           4.2870    -0.2640     1.5920 hc         1 SF7       0.039200
     24 H9           4.9430    -0.7770     0.0490 hc         1 SF7       0.039200
     25 H10          6.1170     1.4080    -0.1930 hc         1 SF7       0.041200
     26 H11          5.4720     1.9310     1.3470 hc         1 SF7       0.041200
     27 H12          7.8090     1.0680     1.6010 hc         1 SF7       0.034033
     28 H13          6.6820     0.0590     2.5030 hc         1 SF7       0.034033
     29 H14          7.3110    -0.4920     0.9540 hc         1 SF7       0.034033
     30 C1          -1.8790     2.6220    -0.3330 c3         1 SF7      -0.053400
     31 C2          -2.8890     1.7090     0.3130 ca         1 SF7      -0.097300
     32 C4          -3.0840     1.7150     1.6900 ca         1 SF7      -0.083000
     33 C11         -4.0010     0.8610     2.2880 ca         1 SF7      -0.170000
     34 C13         -4.7170    -0.0040     1.4850 ca         1 SF7       0.137900
     35 C14         -4.5480    -0.0420     0.1140 ca         1 SF7      -0.170000
     36 C15         -3.6290     0.8210    -0.4630 ca         1 SF7      -0.083000
     37 F1          -5.6070    -0.8360     2.0530 f          1 SF7      -0.146900
     38 H15         -1.5860     3.4110     0.3620 hc         1 SF7       0.071700
     39 H16         -2.3030     3.1080    -1.2130 hc         1 SF7       0.071700
     40 H17         -2.5170     2.3960     2.3120 ha         1 SF7       0.138000
     41 H18         -4.1530     0.8700     3.3590 ha         1 SF7       0.149000
     42 H19         -5.1220    -0.7300    -0.4930 ha         1 SF7       0.149000
     43 H20         -3.4890     0.7980    -1.5370 ha         1 SF7       0.138000
@<TRIPOS>BOND
     1     1     2 2   
     2     2     3 1   
     3     2     5 1   
     4     3     4 1   
     5     3    16 1   
     6     4    17 1   
     7     5     6 1   
     8     5    18 1   
     9     5    19 1   
    10     6     7 1   
    11     6    11 1   
    12     6    20 1   
    13     7     8 1   
    14     7    21 1   
    15     7    22 1   
    16     8     9 1   
    17     8    23 1   
    18     8    24 1   
    19     9    10 1   
    20     9    25 1   
    21     9    26 1   
    22    10    27 1   
    23    10    28 1   
    24    10    29 1   
    25    11    12 1   
    26    11    15 2   
    27    12    13 1   
    28    13    14 2   
    29    14    15 1   
    30    14    30 1   
    31    30    31 1   
    32    30    38 1   
    33    30    39 1   
    34    31    32 ar  
    35    31    36 ar  
    36    32    33 ar  
    37    32    40 1   
    38    33    34 ar  
    39    33    41 1   
    40    34    35 ar  
    41    34    37 1   
    42    35    36 ar  
    43    35    42 1   
    44    36    43 1   
@<TRIPOS>SUBSTRUCTURE
     1 SF7         1 TEMP              0 ****  ****    0 ROOT
