@<TRIPOS>MOLECULE
SF8
   52    51     1     0     0
SMALL
abcg2


@<TRIPOS>ATOM
      1 C1           9.8810    -6.6040     8.4090 c          1 SF8       0.727000
      2 C2           8.9480    -7.7740     8.0460 c3         1 SF8      -0.173400
      3 C3           7.6090    -7.7720     8.7900 c3         1 SF8       0.070000
      4 C4           6.9030    -9.1150     8.4950 c3         1 SF8      -0.147400
      5 C5           5.6640    -9.3320     9.3350 c          1 SF8       0.629100
      6 N6           5.8160   -10.1930    10.3510 ns         1 SF8      -0.472900
      7 C7           4.7770   -10.5880    11.2690 c3         1 SF8      -0.017300
      8 C8           5.3710   -10.7710    12.6670 c3         1 SF8      -0.057400
      9 C9           6.0320    -9.5170    13.2220 c3         1 SF8      -0.122400
     10 C10          6.5700    -9.7410    14.6320 c3         1 SF8       0.113000
     11 N11          7.2800    -8.6010    15.1660 ns         1 SF8      -0.506900
     12 C12          6.6750    -7.5540    15.7570 c          1 SF8       0.617100
     13 C13          7.5900    -6.3870    16.0670 c3         1 SF8      -0.158400
     14 C14          8.0450    -5.5910    14.8180 c3         1 SF8       0.059000
     15 C15          8.8750    -4.4010    15.2870 c3         1 SF8      -0.166400
     16 C16          9.5430    -3.5790    14.1690 c          1 SF8       0.719000
     17 O17         11.0400    -6.9000     8.7690 o          1 SF8      -0.761500
     18 O18          9.4170    -5.4510     8.2910 o          1 SF8      -0.761500
     19 O19          7.8310    -7.6490    10.1760 oh         1 SF8      -0.703000
     20 C20          6.6970    -6.5950     8.3400 c          1 SF8       0.732000
     21 O21          6.4060    -6.5110     7.1370 o          1 SF8      -0.734000
     22 O22          6.3120    -5.8480     9.2700 o          1 SF8      -0.734000
     23 O23          4.6100    -8.7470     9.1080 o          1 SF8      -0.641100
     24 C24          3.9940   -11.8520    10.8030 c          1 SF8       0.707000
     25 O25          3.1450   -12.2730    11.6150 o          1 SF8      -0.772500
     26 O26          4.2620   -12.3180     9.6830 o          1 SF8      -0.772500
     27 O27          5.4840    -7.5500    16.0460 o          1 SF8      -0.668100
     28 C28          6.7690    -5.1820    14.0320 c          1 SF8       0.723000
     29 O29          8.8290    -6.4200    13.9860 oh         1 SF8      -0.717000
     30 O30          6.6070    -5.8040    12.9530 o          1 SF8      -0.711000
     31 O31          5.9990    -4.3590    14.5460 o          1 SF8      -0.711000
     32 O32          8.8710    -3.3530    13.1420 o          1 SF8      -0.748000
     33 O33         10.6990    -3.1670    14.3990 o          1 SF8      -0.748000
     34 H2           8.7440    -7.7510     6.9710 hc         1 SF8      -0.017300
     35 H2A          9.4610    -8.7200     8.2430 hc         1 SF8      -0.017300
     36 H4           6.6220    -9.1450     7.4410 hc         1 SF8       0.014200
     37 H4A          7.6150    -9.9300     8.6560 hc         1 SF8       0.014200
     38 HN6          6.6960   -10.6780    10.4230 hn         1 SF8       0.284500
     39 H7           4.0570    -9.7660    11.3200 h1         1 SF8       0.075700
     40 H8           4.5680   -11.0860    13.3350 hc         1 SF8       0.005700
     41 H8A          6.0960   -11.5940    12.6530 hc         1 SF8       0.005700
     42 H9           6.8540    -9.1970    12.5770 hc         1 SF8       0.094700
     43 H9A          5.3120    -8.6930    13.2350 hc         1 SF8       0.094700
     44 H10          5.7570   -10.0010    15.3110 h1         1 SF8       0.001700
     45 H10A         7.2580   -10.5890    14.6310 h1         1 SF8       0.001700
     46 HN11         8.2170    -8.4410    14.8270 hn         1 SF8       0.331500
     47 H13          7.0650    -5.7170    16.7480 hc         1 SF8       0.018200
     48 H13A         8.4820    -6.7480    16.5890 hc         1 SF8       0.018200
     49 H15          8.2290    -3.7320    15.8640 hc         1 SF8      -0.017300
     50 H15A         9.6430    -4.7510    15.9850 hc         1 SF8      -0.017300
     51 HO19         7.2870    -6.8640    10.3920 ho         1 SF8       0.510000
     52 HO29         8.2490    -6.5160    13.2040 ho         1 SF8       0.505000
@<TRIPOS>BOND
     1     1     2 1   
     2     1    17 1   
     3     1    18 1   
     4     2     3 1   
     5     2    34 1   
     6     2    35 1   
     7     3     4 1   
     8     3    19 1   
     9     3    20 1   
    10     4     5 1   
    11     4    36 1   
    12     4    37 1   
    13     5     6 1   
    14     5    23 2   
    15     6     7 1   
    16     6    38 1   
    17     7     8 1   
    18     7    24 1   
    19     7    39 1   
    20     8     9 1   
    21     8    40 1   
    22     8    41 1   
    23     9    10 1   
    24     9    42 1   
    25     9    43 1   
    26    10    11 1   
    27    10    44 1   
    28    10    45 1   
    29    11    12 1   
    30    11    46 1   
    31    12    13 1   
    32    12    27 2   
    33    13    14 1   
    34    13    47 1   
    35    13    48 1   
    36    14    15 1   
    37    14    28 1   
    38    14    29 1   
    39    15    16 1   
    40    15    49 1   
    41    15    50 1   
    42    16    32 1   
    43    16    33 1   
    44    19    51 1   
    45    20    21 1   
    46    20    22 1   
    47    24    25 1   
    48    24    26 1   
    49    28    30 1   
    50    28    31 1   
    51    29    52 1   
@<TRIPOS>SUBSTRUCTURE
     1 SF8         1 TEMP              0 ****  ****    0 ROOT
