@<TRIPOS>MOLECULE
SF8
   52    51     1     0     0
SMALL
No Charge or Current Charge


@<TRIPOS>ATOM
      1 C1          10.1240    -8.5360     6.7500 c          1 SF8       0.727000
      2 C2           8.6350    -8.9580     6.7770 c3         1 SF8      -0.173400
      3 C3           7.9560    -8.6360     8.1490 c3         1 SF8       0.070000
      4 C4           6.4400    -8.9980     8.0780 c3         1 SF8      -0.147400
      5 C5           5.7380    -8.9260     9.4450 c          1 SF8       0.629100
      6 N6           5.4140   -10.1520     9.9880 ns         1 SF8      -0.472900
      7 C7           4.6750   -10.3790    11.2540 c3         1 SF8      -0.017300
      8 C8           5.6280   -10.5890    12.4600 c3         1 SF8      -0.057400
      9 C9           6.3260    -9.3040    12.9610 c3         1 SF8      -0.122400
     10 C10          7.2510    -9.5680    14.1640 c3         1 SF8       0.113000
     11 N11          7.8080    -8.3410    14.7290 ns         1 SF8      -0.506900
     12 C12          7.1650    -7.5230    15.6330 c          1 SF8       0.617100
     13 C13          8.0010    -6.3370    16.1430 c3         1 SF8      -0.158400
     14 C14          7.5120    -4.9610    15.5960 c3         1 SF8       0.059000
     15 C15          8.5240    -3.8420    16.0120 c3         1 SF8      -0.166400
     16 C16          8.0580    -2.4350    15.5640 c          1 SF8       0.719000
     17 O17         10.9750    -9.3540     7.0690 o          1 SF8      -0.761500
     18 O18         10.4000    -7.4070     6.3710 o          1 SF8      -0.761500
     19 O19          8.5550    -9.4870     9.1560 oh         1 SF8      -0.703000
     20 C20          8.1670    -7.1040     8.5290 c          1 SF8       0.732000
     21 O21          7.5630    -6.2280     7.9210 o          1 SF8      -0.734000
     22 O22          8.8940    -6.8750     9.4920 o          1 SF8      -0.734000
     23 O23          5.4190    -7.8710     9.9770 o          1 SF8      -0.641100
     24 C24          3.6910   -11.5840    11.0930 c          1 SF8       0.707000
     25 O25          2.5030   -11.3950    11.3150 o          1 SF8      -0.772500
     26 O26          4.1220   -12.6470    10.6630 o          1 SF8      -0.772500
     27 O27          6.0410    -7.7730    16.0500 o          1 SF8      -0.668100
     28 C28          6.0520    -4.6140    16.1340 c          1 SF8       0.723000
     29 O29          7.5110    -5.0530    14.1500 oh         1 SF8      -0.717000
     30 O30          5.1990    -4.3630    15.2880 o          1 SF8      -0.711000
     31 O31          5.8130    -4.6650    17.3350 o          1 SF8      -0.711000
     32 O32          7.3570    -1.7870    16.3270 o          1 SF8      -0.748000
     33 O33          8.4360    -2.0050    14.4830 o          1 SF8      -0.748000
     34 H2           8.0720    -8.3800     6.0310 hc         1 SF8      -0.017300
     35 H2A          8.5430   -10.0430     6.6340 hc         1 SF8      -0.017300
     36 H4           5.9410    -8.3100     7.3850 hc         1 SF8       0.014200
     37 H4A          6.3540   -10.0190     7.6860 hc         1 SF8       0.014200
     38 HN6          5.7080   -10.9650     9.4610 hn         1 SF8       0.284500
     39 H7           4.0500    -9.5000    11.4580 h1         1 SF8       0.075700
     40 H8           5.0450   -11.0030    13.2920 hc         1 SF8       0.005700
     41 H8A          6.3830   -11.3430    12.2030 hc         1 SF8       0.005700
     42 H9           6.9150    -8.8590    12.1510 hc         1 SF8       0.094700
     43 H9A          5.5630    -8.5690    13.2460 hc         1 SF8       0.094700
     44 H10          6.6970   -10.0980    14.9500 h1         1 SF8       0.001700
     45 H10A         8.0840   -10.2100    13.8490 h1         1 SF8       0.001700
     46 HN11         8.7350    -8.0520    14.4440 hn         1 SF8       0.331500
     47 H13          7.9570    -6.3190    17.2380 hc         1 SF8       0.018200
     48 H13A         9.0460    -6.4760    15.8360 hc         1 SF8       0.018200
     49 H15          8.5710    -3.8850    17.1080 hc         1 SF8      -0.017300
     50 H15A         9.4800    -4.0960    15.5340 hc         1 SF8      -0.017300
     51 HO19         9.0600    -8.8540     9.7270 ho         1 SF8       0.510000
     52 HO29         6.6070    -4.7440    13.8910 ho         1 SF8       0.505000
@<TRIPOS>BOND
     1     1     2 1   
     2     1    17 1   
     3     1    18 1   
     4     2     3 1   
     5     2    34 1   
     6     2    35 1   
     7     3     4 1   
     8     3    19 1   
     9     3    20 1   
    10     4     5 1   
    11     4    36 1   
    12     4    37 1   
    13     5     6 1   
    14     5    23 2   
    15     6     7 1   
    16     6    38 1   
    17     7     8 1   
    18     7    24 1   
    19     7    39 1   
    20     8     9 1   
    21     8    40 1   
    22     8    41 1   
    23     9    10 1   
    24     9    42 1   
    25     9    43 1   
    26    10    11 1   
    27    10    44 1   
    28    10    45 1   
    29    11    12 1   
    30    11    46 1   
    31    12    13 1   
    32    12    27 2   
    33    13    14 1   
    34    13    47 1   
    35    13    48 1   
    36    14    15 1   
    37    14    28 1   
    38    14    29 1   
    39    15    16 1   
    40    15    49 1   
    41    15    50 1   
    42    16    32 1   
    43    16    33 1   
    44    19    51 1   
    45    20    21 1   
    46    20    22 1   
    47    24    25 1   
    48    24    26 1   
    49    28    30 1   
    50    28    31 1   
    51    29    52 1   
@<TRIPOS>SUBSTRUCTURE
     1 SF8         1 TEMP              0 ****  ****    0 ROOT
