@<TRIPOS>MOLECULE
SF9
   24    24     1     0     0
SMALL
No Charge or Current Charge


@<TRIPOS>ATOM
      1 C1          25.9890    -4.9930   -24.9650 c3         1 SF9       0.189600
      2 O1          25.6530    -6.0680   -25.8800 oh         1 SF9      -0.707000
      3 C2          26.7170    -5.4870   -23.6600 c5         1 SF9       0.401000
      4 O2          25.8330    -6.3220   -22.9170 oh         1 SF9      -0.710000
      5 C3          28.1280    -6.1520   -23.8960 c5         1 SF9       0.135300
      6 O3          29.0220    -5.4190   -24.7530 oh         1 SF9      -0.711000
      7 C4          28.7110    -6.0940   -22.4490 c5         1 SF9       0.088300
      8 O4          30.1550    -6.0530   -22.4950 oh         1 SF9      -0.719000
      9 C5          28.0680    -4.7710   -21.8760 c5         1 SF9       0.133300
     10 O5          27.0460    -4.3640   -22.8290 os         1 SF9      -0.462000
     11 C6          27.4660    -4.8920   -20.4450 c3         1 SF9       0.150600
     12 O6          26.4740    -5.9330   -20.3690 oh         1 SF9      -0.726000
     13 H11         26.6380    -4.2620   -25.4660 h1         1 SF9       0.042200
     14 H12         25.0780    -4.4570   -24.6640 h1         1 SF9       0.042200
     15 HO1         25.1690    -5.6590   -26.6350 ho         1 SF9       0.505000
     16 HO2         26.0600    -6.1240   -21.9650 ho         1 SF9       0.518000
     17 H3          28.0200    -7.1890   -24.2440 h1         1 SF9       0.081700
     18 HO3         29.8460    -5.4070   -24.1970 ho         1 SF9       0.525000
     19 H4          28.3720    -6.9710   -21.8790 h1         1 SF9       0.062700
     20 HO4         30.4890    -6.2940   -21.5960 ho         1 SF9       0.517000
     21 H5          28.8180    -3.9690   -21.8450 h1         1 SF9       0.074700
     22 H61         28.2850    -5.0990   -19.7430 h1         1 SF9       0.029200
     23 H62         27.0280    -3.9250   -20.1650 h1         1 SF9       0.029200
     24 HO6         26.1990    -5.9960   -19.4210 ho         1 SF9       0.511000
@<TRIPOS>BOND
     1     1     2 1   
     2     1     3 1   
     3     1    13 1   
     4     1    14 1   
     5     2    15 1   
     6     3     4 1   
     7     3     5 1   
     8     3    10 1   
     9     4    16 1   
    10     5     6 1   
    11     5     7 1   
    12     5    17 1   
    13     6    18 1   
    14     7     8 1   
    15     7     9 1   
    16     7    19 1   
    17     8    20 1   
    18     9    10 1   
    19     9    11 1   
    20     9    21 1   
    21    11    12 1   
    22    11    22 1   
    23    11    23 1   
    24    12    24 1   
@<TRIPOS>SUBSTRUCTURE
     1 SF9         1 TEMP              0 ****  ****    0 ROOT
