@<TRIPOS>MOLECULE
SF9
   24    24     1     0     0
SMALL
bcc


@<TRIPOS>ATOM
      1 C1          26.0500    -4.9460   -24.8980 c3         1 SF9       0.166400
      2 O1          25.9230    -5.9300   -25.8930 oh         1 SF9      -0.584800
      3 C2          26.6390    -5.5880   -23.6510 c5         1 SF9       0.354600
      4 O2          25.7220    -6.5560   -23.2320 oh         1 SF9      -0.587800
      5 C3          28.0480    -6.1810   -23.8250 c5         1 SF9       0.112100
      6 O3          28.7990    -5.3410   -24.6620 oh         1 SF9      -0.588800
      7 C4          28.5670    -6.1120   -22.3910 c5         1 SF9       0.065100
      8 O4          29.9680    -6.1540   -22.3830 oh         1 SF9      -0.596800
      9 C5          27.9650    -4.7840   -21.9010 c5         1 SF9       0.110100
     10 O5          26.7950    -4.5780   -22.6840 os         1 SF9      -0.415600
     11 C6          27.6150    -4.7610   -20.4300 c3         1 SF9       0.127400
     12 O6          26.7040    -5.8000   -20.1620 oh         1 SF9      -0.603800
     13 H11         26.6930    -4.1190   -25.2110 h1         1 SF9       0.042200
     14 H12         25.0770    -4.5110   -24.6250 h1         1 SF9       0.042200
     15 HO1         25.6670    -5.4950   -26.7120 ho         1 SF9       0.406000
     16 HO2         25.9470    -6.8730   -22.3490 ho         1 SF9       0.419000
     17 H3          28.0080    -7.2060   -24.2110 h1         1 SF9       0.081700
     18 HO3         29.7330    -5.5070   -24.4920 ho         1 SF9       0.426000
     19 H4          28.1600    -6.9500   -21.8120 h1         1 SF9       0.062700
     20 HO4         30.2850    -6.1150   -21.4750 ho         1 SF9       0.418000
     21 H5          28.6770    -3.9720   -22.0940 h1         1 SF9       0.074700
     22 H61         28.5440    -4.8690   -19.8550 h1         1 SF9       0.029200
     23 H62         27.2030    -3.7760   -20.1750 h1         1 SF9       0.029200
     24 HO6         26.4720    -5.7750   -19.2290 ho         1 SF9       0.412000
@<TRIPOS>BOND
     1     1     2 1   
     2     1     3 1   
     3     1    13 1   
     4     1    14 1   
     5     2    15 1   
     6     3     4 1   
     7     3     5 1   
     8     3    10 1   
     9     4    16 1   
    10     5     6 1   
    11     5     7 1   
    12     5    17 1   
    13     6    18 1   
    14     7     8 1   
    15     7     9 1   
    16     7    19 1   
    17     8    20 1   
    18     9    10 1   
    19     9    11 1   
    20     9    21 1   
    21    11    12 1   
    22    11    22 1   
    23    11    23 1   
    24    12    24 1   
@<TRIPOS>SUBSTRUCTURE
     1 SF9         1 TEMP              0 ****  ****    0 ROOT
