@<TRIPOS>MOLECULE
SFB
   64    68     1     0     0
SMALL
No Charge or Current Charge


@<TRIPOS>ATOM
      1 N1A         -8.1630     2.2630    -1.1820 nb         1 SFB      -0.302000
      2 C1B         -5.0920    -1.5650     0.7500 c5         1 SFB       0.325300
      3 C1C          5.1110     0.9290     1.2240 c5         1 SFB       0.308700
      4 N1D          5.9320     1.2210     0.0150 n          1 SFB      -0.339000
      5 C1S          1.8700    -1.1470     0.7440 c3         1 SFB      -0.304400
      6 O1S          0.6140     0.6380    -0.7840 o          1 SFB      -0.519000
      7 C2A         -8.2030     0.9210    -1.3530 ca         1 SFB       0.183900
      8 C2B         -4.9400    -2.3440    -0.6020 c5         1 SFB       0.108300
      9 O2B         -5.0480    -3.7730    -0.4630 oh         1 SFB      -0.700000
     10 C2C          3.6000     0.8640     0.7660 c5         1 SFB       0.138300
     11 O2C          2.7210     1.5130     1.7050 oh         1 SFB      -0.704000
     12 C2D          6.2200     2.5700    -0.2670 c          1 SFB       0.615000
     13 O2D          5.8110     3.4950     0.4140 o          1 SFB      -0.570000
     14 O2S          1.4100    -1.5290    -1.8400 o          1 SFB      -0.519000
     15 N3A         -7.3530     0.0120    -0.8180 nb         1 SFB      -0.229000
     16 C3B         -3.4810    -1.9490    -0.9610 c5         1 SFB       0.093300
     17 O3B         -2.9160    -2.8420    -1.9370 oh         1 SFB      -0.719000
     18 C3C          3.3620    -0.6820     0.7540 c5         1 SFB      -0.076700
     19 N3D          6.9810     2.8060    -1.3690 ns         1 SFB      -0.465500
     20 C4A         -6.3700     0.5060    -0.0400 ca         1 SFB       0.117500
     21 C4B         -2.7930    -2.0750     0.4360 c5         1 SFB       0.076300
     22 O4B         -3.8230    -1.7580     1.4230 os         1 SFB      -0.411000
     23 C4C          4.1880    -1.0680     2.0150 c5         1 SFB       0.170300
     24 O4C          5.4310    -0.3690     1.7800 os         1 SFB      -0.432000
     25 C4D          7.5060     1.9020    -2.2340 c          1 SFB       0.590200
     26 O4D          8.1770     2.2330    -3.1940 o          1 SFB      -0.523000
     27 C5A         -6.2450     1.8510     0.2010 ca         1 SFB      -0.096600
     28 C5B         -1.5740    -1.1080     0.5190 c          1 SFB       0.621100
     29 O5B         -1.4530    -0.1330     1.2450 o          1 SFB      -0.521100
     30 C5C          4.4460    -2.5900     2.2070 c3         1 SFB       0.159600
     31 O5C          5.0950    -2.8600     3.4640 oh         1 SFB      -0.701000
     32 C5D          7.1870     0.5180    -1.8930 cc         1 SFB      -0.387200
     33 C6A         -7.1750     2.7250    -0.4010 ca         1 SFB       0.452900
     34 N6A         -7.1390     4.0720    -0.2190 nv         1 SFB      -1.062900
     35 C6D          6.4250     0.1950    -0.7950 cd         1 SFB       0.009600
     36 N7A         -5.1840     2.1430     1.0500 nc         1 SFB      -0.549100
     37 C8A         -4.6830     0.9190     1.3040 cd         1 SFB       0.417700
     38 N9A         -5.3610    -0.1260     0.6430 na         1 SFB      -0.322300
     39 SAS          0.8450    -0.8070    -0.6970 s6         1 SFB       1.205800
     40 H1B         -5.9130    -1.9820     1.3480 h2         1 SFB       0.130700
     41 H1C          5.2800     1.7220     1.9640 h2         1 SFB       0.113700
     42 H1S          1.8250    -2.2360     0.8490 h1         1 SFB       0.118700
     43 H1SA         1.3320    -0.7000     1.5870 h1         1 SFB       0.118700
     44 H2A         -9.0010     0.5320    -1.9830 h5         1 SFB       0.047100
     45 H2B         -5.6480    -1.9780    -1.3590 h1         1 SFB       0.089700
     46 HO2B        -4.3030    -4.1250    -1.0110 ho         1 SFB       0.526000
     47 H2C          3.4620     1.2880    -0.2400 h1         1 SFB       0.087700
     48 HO2C         2.6950     2.4720     1.4740 ho         1 SFB       0.534000
     49 H3B         -3.4420    -0.9070    -1.3150 h1         1 SFB       0.071700
     50 HO3B        -3.2020    -2.5330    -2.8330 ho         1 SFB       0.530000
     51 H3C          3.8250    -1.1270    -0.1350 hc         1 SFB       0.075700
     52 HN3D         7.1790     3.7730    -1.5670 hn         1 SFB       0.344500
     53 HN3S        -0.7870    -2.3320    -0.9320 hn         1 SFB       0.361500
     54 H4B         -2.4380    -3.0980     0.6200 h1         1 SFB       0.100700
     55 H4C          3.7170    -0.6740     2.9280 h1         1 SFB       0.091700
     56 H5C          3.4840    -3.1180     2.1690 h1         1 SFB       0.023700
     57 H5CA         5.0570    -2.9550     1.3710 h1         1 SFB       0.023700
     58 HO5C         5.2870    -3.8270     3.4870 ho         1 SFB       0.508000
     59 H5D          7.5950    -0.2360    -2.5570 ha         1 SFB       0.223000
     60 HN6A        -7.9830     4.6020    -0.4170 hn         1 SFB       0.508500
     61 HN6B        -6.5500     4.4190     0.5350 hn         1 SFB       0.508500
     62 H6D          6.1710    -0.8180    -0.4910 h4         1 SFB       0.218000
     63 H8A         -3.8440     0.7170     1.9590 h5         1 SFB       0.091800
     64 N3S         -0.5980    -1.5510    -0.3220 ns         1 SFB      -0.591300
@<TRIPOS>BOND
     1     1     7 ar  
     2     1    33 ar  
     3     2     8 1   
     4     2    22 1   
     5     2    38 1   
     6     2    40 1   
     7     3     4 1   
     8     3    10 1   
     9     3    24 1   
    10     3    41 1   
    11     4    12 1   
    12     4    35 1   
    13     5    18 1   
    14     5    39 1   
    15     5    42 1   
    16     5    43 1   
    17     6    39 2   
    18     7    15 ar  
    19     7    44 1   
    20     8     9 1   
    21     8    16 1   
    22     8    45 1   
    23     9    46 1   
    24    10    11 1   
    25    10    18 1   
    26    10    47 1   
    27    11    48 1   
    28    12    13 2   
    29    12    19 1   
    30    14    39 2   
    31    15    20 ar  
    32    16    17 1   
    33    16    21 1   
    34    16    49 1   
    35    17    50 1   
    36    18    23 1   
    37    18    51 1   
    38    19    25 1   
    39    19    52 1   
    40    20    27 ar  
    41    20    38 1   
    42    21    22 1   
    43    21    28 1   
    44    21    54 1   
    45    23    24 1   
    46    23    30 1   
    47    23    55 1   
    48    25    26 2   
    49    25    32 1   
    50    27    33 ar  
    51    27    36 1   
    52    28    29 2   
    53    28    64 1   
    54    30    31 1   
    55    30    56 1   
    56    30    57 1   
    57    31    58 1   
    58    32    35 2   
    59    32    59 1   
    60    33    34 1   
    61    34    60 1   
    62    34    61 1   
    63    35    62 1   
    64    36    37 2   
    65    37    38 1   
    66    37    63 1   
    67    39    64 1   
    68    53    64 1   
@<TRIPOS>SUBSTRUCTURE
     1 SFB         1 TEMP              0 ****  ****    0 ROOT
