@<TRIPOS>MOLECULE
SFB
   64    68     1     0     0
SMALL
bcc


@<TRIPOS>ATOM
      1 N1A         -8.4350     2.1550    -0.5890 nb         1 SFB      -0.828000
      2 C1B         -4.9480    -1.3530     0.6170 c5         1 SFB       0.272800
      3 C1C          4.8060     1.0370     1.3380 c5         1 SFB       0.285500
      4 N1D          5.7340     1.2070     0.1970 n          1 SFB      -0.406000
      5 C1S          1.8810    -1.2780     0.8560 c3         1 SFB      -0.193600
      6 O1S          0.7520     0.4000    -0.8720 o          1 SFB      -0.589800
      7 C2A         -8.4800     0.8250    -0.5560 ca         1 SFB       0.709900
      8 C2B         -4.8830    -2.0590    -0.7360 c5         1 SFB       0.085100
      9 O2B         -5.2010    -3.4020    -0.5140 oh         1 SFB      -0.577800
     10 C2C          3.3550     0.8390     0.8640 c5         1 SFB       0.115100
     11 O2C          2.4630     1.2820     1.8450 oh         1 SFB      -0.581800
     12 C2D          5.7110     2.4390    -0.4200 c          1 SFB       0.824500
     13 O2D          4.9660     3.3300    -0.0610 o          1 SFB      -0.645500
     14 O2S          1.6110    -1.7890    -1.7260 o          1 SFB      -0.589800
     15 N3A         -7.5170    -0.0210    -0.2340 nb         1 SFB      -0.755000
     16 C3B         -3.3990    -1.8930    -1.0800 c5         1 SFB       0.070100
     17 O3B         -2.8940    -2.8670    -1.9430 oh         1 SFB      -0.596800
     18 C3C          3.2800    -0.6840     0.7840 c5         1 SFB      -0.076700
     19 N3D          6.5840     2.5820    -1.4620 ns         1 SFB      -0.599500
     20 C4A         -6.3930     0.6160     0.0870 ca         1 SFB       0.445800
     21 C4B         -2.7640    -2.0490     0.3100 c5         1 SFB       0.053100
     22 O4B         -3.7040    -1.5470     1.2280 os         1 SFB      -0.364600
     23 C4C          4.1460    -1.1090     1.9700 c5         1 SFB       0.147100
     24 O4C          5.1490    -0.0930     2.0660 os         1 SFB      -0.385600
     25 C4D          7.4730     1.6410    -1.9620 c          1 SFB       0.732700
     26 O4D          8.1880     1.9080    -2.9100 o          1 SFB      -0.598500
     27 C5A         -6.1940     1.9860     0.1040 ca         1 SFB      -0.227200
     28 C5B         -1.4580    -1.2900     0.4340 c          1 SFB       0.688100
     29 O5B         -1.2850    -0.3490     1.1690 o          1 SFB      -0.521100
     30 C5C          4.7850    -2.4660     1.7950 c3         1 SFB       0.136400
     31 O5C          5.5630    -2.7470     2.9300 oh         1 SFB      -0.578800
     32 C5D          7.4380     0.3900    -1.2490 cc         1 SFB      -0.337200
     33 C6A         -7.2980     2.7790    -0.2620 ca         1 SFB       0.781200
     34 N6A         -7.2500     4.1110    -0.2970 nv         1 SFB      -0.952500
     35 C6D          6.5910     0.2330    -0.2160 cd         1 SFB       0.059600
     36 N7A         -4.9150     2.2860     0.4920 nc         1 SFB      -0.549100
     37 C8A         -4.3570     1.1290     0.7020 cd         1 SFB       0.417700
     38 N9A         -5.1990     0.0740     0.4670 na         1 SFB      -0.293000
     39 SAS          0.9890    -1.0140    -0.6680 s6         1 SFB       1.236600
     40 H1B         -5.7380    -1.7650     1.2480 h2         1 SFB       0.130700
     41 H1C          4.9040     1.9280     1.9620 h2         1 SFB       0.113700
     42 H1S          1.9120    -2.3600     0.9900 h1         1 SFB       0.118700
     43 H1SA         1.2940    -0.8420     1.6630 h1         1 SFB       0.118700
     44 H2A         -9.4320     0.3850    -0.8300 h5         1 SFB       0.047100
     45 H2B         -5.5380    -1.5920    -1.4800 h1         1 SFB       0.089700
     46 HO2B        -4.8270    -3.9250    -1.2330 ho         1 SFB       0.427000
     47 H2C          3.1710     1.3080    -0.1040 h1         1 SFB       0.087700
     48 HO2C         2.3580     2.2350     1.7640 ho         1 SFB       0.435000
     49 H3B         -3.2260    -0.8810    -1.4670 h1         1 SFB       0.071700
     50 HO3B        -2.9710    -2.5580    -2.8520 ho         1 SFB       0.431000
     51 H3C          3.7730    -1.0080    -0.1400 hc         1 SFB       0.075700
     52 HN3D         6.5700     3.4870    -1.9170 hn         1 SFB       0.344500
     53 HN3S        -0.6700    -2.5860    -0.9860 hn         1 SFB       0.361500
     54 H4B         -2.5690    -3.1110     0.5060 h1         1 SFB       0.100700
     55 H4C          3.5570    -1.1080     2.8960 h1         1 SFB       0.091700
     56 H5C          3.9800    -3.2010     1.6600 h1         1 SFB       0.023700
     57 H5CA         5.3790    -2.4770     0.8710 h1         1 SFB       0.023700
     58 HO5C         5.9520    -3.6190     2.8200 ho         1 SFB       0.409000
     59 H5D          8.0990    -0.4120    -1.5390 ha         1 SFB       0.173000
     60 HN6A        -8.0660     4.6410    -0.5490 hn         1 SFB       0.453300
     61 HN6B        -6.4200     4.6100    -0.0320 hn         1 SFB       0.453300
     62 H6D          6.5720    -0.6890     0.3440 h4         1 SFB       0.168000
     63 H8A         -3.3410     0.9870     1.0360 h5         1 SFB       0.091800
     64 N3S         -0.4800    -1.7870    -0.3900 ns         1 SFB      -0.658300
@<TRIPOS>BOND
     1     1     7 ar  
     2     1    33 ar  
     3     2     8 1   
     4     2    22 1   
     5     2    38 1   
     6     2    40 1   
     7     3     4 1   
     8     3    10 1   
     9     3    24 1   
    10     3    41 1   
    11     4    12 1   
    12     4    35 1   
    13     5    18 1   
    14     5    39 1   
    15     5    42 1   
    16     5    43 1   
    17     6    39 2   
    18     7    15 ar  
    19     7    44 1   
    20     8     9 1   
    21     8    16 1   
    22     8    45 1   
    23     9    46 1   
    24    10    11 1   
    25    10    18 1   
    26    10    47 1   
    27    11    48 1   
    28    12    13 2   
    29    12    19 1   
    30    14    39 2   
    31    15    20 ar  
    32    16    17 1   
    33    16    21 1   
    34    16    49 1   
    35    17    50 1   
    36    18    23 1   
    37    18    51 1   
    38    19    25 1   
    39    19    52 1   
    40    20    27 ar  
    41    20    38 1   
    42    21    22 1   
    43    21    28 1   
    44    21    54 1   
    45    23    24 1   
    46    23    30 1   
    47    23    55 1   
    48    25    26 2   
    49    25    32 1   
    50    27    33 ar  
    51    27    36 1   
    52    28    29 2   
    53    28    64 1   
    54    30    31 1   
    55    30    56 1   
    56    30    57 1   
    57    31    58 1   
    58    32    35 2   
    59    32    59 1   
    60    33    34 1   
    61    34    60 1   
    62    34    61 1   
    63    35    62 1   
    64    36    37 2   
    65    37    38 1   
    66    37    63 1   
    67    39    64 1   
    68    53    64 1   
@<TRIPOS>SUBSTRUCTURE
     1 SFB         1 TEMP              0 ****  ****    0 ROOT
