@<TRIPOS>MOLECULE
SFE
   22    22     1     0     0
SMALL
No Charge or Current Charge


@<TRIPOS>ATOM
      1 N            0.7560     1.6320    -0.8840 n8         1 SFE      -0.963200
      2 O            3.1170    -1.5240    -0.1220 o          1 SFE      -0.737500
      3 OXT          3.6870     0.4890     0.3820 o          1 SFE      -0.737500
      4 CZ          -3.7200    -0.3480     0.2860 ca         1 SFE      -0.137000
      5 CE2         -3.1240    -0.8710    -0.8730 ca         1 SFE      -0.118000
      6 CE1         -2.9440     0.3710     1.2090 ca         1 SFE      -0.118000
      7 CD2         -1.7520    -0.6780    -1.1080 ca         1 SFE      -0.114000
      8 CD1         -1.5710     0.5650     0.9750 ca         1 SFE      -0.114000
      9 CA           1.4180    -0.1260     0.7540 c3         1 SFE      -0.197400
     10 C            2.8580    -0.4060     0.2990 c          1 SFE       0.731000
     11 CG          -0.9600     0.0380    -0.1860 ca         1 SFE      -0.088300
     12 CB           0.5330     0.2410    -0.4600 c3         1 SFE       0.210800
     13 HN1          0.1150     1.8400    -1.6570 hn         1 SFE       0.374500
     14 HN2          0.4340     2.2490    -0.1330 hn         1 SFE       0.374500
     15 HB           0.8150    -0.4210    -1.2940 h1         1 SFE       0.084700
     16 HA1C         0.9810    -1.0530     1.1460 hc         1 SFE       0.019700
     17 HA2C         1.3810     0.7080     1.4660 hc         1 SFE       0.019700
     18 HD2         -1.3030    -1.0880    -2.0110 ha         1 SFE       0.112000
     19 HE2         -3.7250    -1.4260    -1.5900 ha         1 SFE       0.096000
     20 HD1         -0.9840     1.1260     1.6980 ha         1 SFE       0.112000
     21 HE1         -3.4040     0.7790     2.1050 ha         1 SFE       0.096000
     22 HZ          -4.7820    -0.4970     0.4670 ha         1 SFE       0.094000
@<TRIPOS>BOND
     1     1    12 1   
     2     1    13 1   
     3     1    14 1   
     4     2    10 1   
     5     3    10 1   
     6     4     5 ar  
     7     4     6 ar  
     8     4    22 1   
     9     5     7 ar  
    10     5    19 1   
    11     6     8 ar  
    12     6    21 1   
    13     7    11 ar  
    14     7    18 1   
    15     8    11 ar  
    16     8    20 1   
    17     9    10 1   
    18     9    12 1   
    19     9    16 1   
    20     9    17 1   
    21    11    12 1   
    22    12    15 1   
@<TRIPOS>SUBSTRUCTURE
     1 SFE         1 TEMP              0 ****  ****    0 ROOT
