@<TRIPOS>MOLECULE
SFE
   22    22     1     0     0
SMALL
bcc


@<TRIPOS>ATOM
      1 N            0.8940     1.7180    -0.6030 n8         1 SFE      -0.852800
      2 O            3.1500    -0.7190    -0.9700 o          1 SFE      -0.842800
      3 OXT          3.6030    -0.0020     1.0880 o          1 SFE      -0.842800
      4 CZ          -3.7040    -0.3720     0.3530 ca         1 SFE      -0.155000
      5 CE2         -3.0170    -1.2030    -0.5220 ca         1 SFE      -0.136000
      6 CE1         -3.0420     0.7030     0.9320 ca         1 SFE      -0.136000
      7 CD2         -1.6810    -0.9590    -0.8100 ca         1 SFE      -0.132000
      8 CD1         -1.7060     0.9430     0.6380 ca         1 SFE      -0.132000
      9 CA           1.3230    -0.3970     0.5090 c3         1 SFE      -0.197400
     10 C            2.8260    -0.3590     0.1800 c          1 SFE       0.941600
     11 CG          -1.0040     0.1150    -0.2340 ca         1 SFE      -0.088300
     12 CB           0.4700     0.3300    -0.5290 c3         1 SFE       0.210800
     13 HN1          0.2900     2.2390    -1.2280 hn         1 SFE       0.319300
     14 HN2          0.8160     2.1600     0.3040 hn         1 SFE       0.319300
     15 HB           0.6820    -0.1270    -1.5000 h1         1 SFE       0.084700
     16 HA1C         1.0020    -1.4430     0.5570 hc         1 SFE       0.019700
     17 HA2C         1.1270     0.0300     1.4980 hc         1 SFE       0.019700
     18 HD2         -1.1530    -1.6130    -1.4960 ha         1 SFE       0.130000
     19 HE2         -3.5240    -2.0410    -0.9850 ha         1 SFE       0.114000
     20 HD1         -1.2130     1.7940     1.0940 ha         1 SFE       0.130000
     21 HE1         -3.5680     1.3600     1.6130 ha         1 SFE       0.114000
     22 HZ          -4.7460    -0.5570     0.5790 ha         1 SFE       0.112000
@<TRIPOS>BOND
     1     1    12 1   
     2     1    13 1   
     3     1    14 1   
     4     2    10 1   
     5     3    10 1   
     6     4     5 ar  
     7     4     6 ar  
     8     4    22 1   
     9     5     7 ar  
    10     5    19 1   
    11     6     8 ar  
    12     6    21 1   
    13     7    11 ar  
    14     7    18 1   
    15     8    11 ar  
    16     8    20 1   
    17     9    10 1   
    18     9    12 1   
    19     9    16 1   
    20     9    17 1   
    21    11    12 1   
    22    12    15 1   
@<TRIPOS>SUBSTRUCTURE
     1 SFE         1 TEMP              0 ****  ****    0 ROOT
