@<TRIPOS>MOLECULE
SFF
   41    43     1     0     0
SMALL
No Charge or Current Charge


@<TRIPOS>ATOM
      1 C15         -3.6740    -0.9960     1.1020 c6         1 SFF      -0.090900
      2 C16         -5.0430    -0.4610     0.6090 c6         1 SFF      -0.070400
      3 C17         -5.1310    -0.4910    -0.9370 c6         1 SFF      -0.079400
      4 C18         -3.9560     0.2850    -1.5820 c6         1 SFF      -0.070400
      5 C19         -2.5900    -0.2500    -1.0830 c6         1 SFF      -0.090900
      6 C14         -2.5010    -0.2070     0.4660 c6         1 SFF       0.243500
      7 N13         -1.2320    -0.7940     0.9090 nu         1 SFF      -0.865400
      8 C8          -0.0290    -0.1840     0.8460 c2         1 SFF       0.956500
      9 O7           0.9530    -1.1130     0.8200 os         1 SFF      -0.493600
     10 C3           2.3090    -0.7200     1.0250 c6         1 SFF       0.209300
     11 C2           3.2550    -1.9000     0.6880 c6         1 SFF      -0.068400
     12 C1           3.1910    -2.2800    -0.8170 c6         1 SFF      -0.071400
     13 C6           3.4760    -1.0530    -1.7190 c6         1 SFF      -0.074400
     14 C5           2.5250     0.1240    -1.3890 c6         1 SFF      -0.036400
     15 C4           2.6100     0.4810     0.1290 c6         1 SFF      -0.387700
     16 S10          1.5030     1.8060     0.6380 sy         1 SFF       1.271600
     17 O11          1.9470     2.2310     1.9690 o          1 SFF      -0.534000
     18 O12          1.4240     2.7590    -0.4730 o          1 SFF      -0.534000
     19 N9           0.0520     1.0810     0.8020 ne         1 SFF      -0.896300
     20 H1          -3.6230    -0.9230     2.1970 hc         1 SFF       0.046950
     21 H2          -3.5890    -2.0630     0.8540 hc         1 SFF       0.046950
     22 H3          -5.8550    -1.0610     1.0410 hc         1 SFF       0.047200
     23 H4          -5.1900     0.5670     0.9680 hc         1 SFF       0.047200
     24 H5          -5.1220    -1.5330    -1.2870 hc         1 SFF       0.041700
     25 H6          -6.0870    -0.0610    -1.2650 hc         1 SFF       0.041700
     26 H7          -4.0110     0.2040    -2.6760 hc         1 SFF       0.047200
     27 H8          -4.0440     1.3550    -1.3440 hc         1 SFF       0.047200
     28 H9          -2.4480    -1.2800    -1.4390 hc         1 SFF       0.046950
     29 H10         -1.7800     0.3480    -1.5230 hc         1 SFF       0.046950
     30 H11         -2.5780     0.8410     0.7980 h1         1 SFF       0.099700
     31 H12         -1.1270    -1.7990     0.8750 hn         1 SFF       0.499000
     32 H13          2.4410    -0.4480     2.0850 h1         1 SFF       0.083700
     33 H14          4.2850    -1.6270     0.9550 hc         1 SFF       0.059700
     34 H15          2.9960    -2.7700     1.3050 hc         1 SFF       0.059700
     35 H16          3.9170    -3.0760    -1.0300 hc         1 SFF       0.046700
     36 H17          2.2000    -2.6910    -1.0550 hc         1 SFF       0.046700
     37 H18          4.5190    -0.7320    -1.5860 hc         1 SFF       0.045200
     38 H19          3.3700    -1.3340    -2.7760 hc         1 SFF       0.045200
     39 H20          2.7980     0.9930    -2.0040 hc         1 SFF       0.058700
     40 H21          1.4970    -0.1450    -1.6710 hc         1 SFF       0.058700
     41 H22          3.6090     0.8730     0.3550 h1         1 SFF       0.120700
@<TRIPOS>BOND
     1     1     2 1   
     2     1     6 1   
     3     1    20 1   
     4     1    21 1   
     5     2     3 1   
     6     2    22 1   
     7     2    23 1   
     8     3     4 1   
     9     3    24 1   
    10     3    25 1   
    11     4     5 1   
    12     4    26 1   
    13     4    27 1   
    14     5     6 1   
    15     5    28 1   
    16     5    29 1   
    17     6     7 1   
    18     6    30 1   
    19     7     8 1   
    20     7    31 1   
    21     8     9 1   
    22     8    19 2   
    23     9    10 1   
    24    10    11 1   
    25    10    15 1   
    26    10    32 1   
    27    11    12 1   
    28    11    33 1   
    29    11    34 1   
    30    12    13 1   
    31    12    35 1   
    32    12    36 1   
    33    13    14 1   
    34    13    37 1   
    35    13    38 1   
    36    14    15 1   
    37    14    39 1   
    38    14    40 1   
    39    15    16 1   
    40    15    41 1   
    41    16    17 2   
    42    16    18 2   
    43    16    19 1   
@<TRIPOS>SUBSTRUCTURE
     1 SFF         1 TEMP              0 ****  ****    0 ROOT
