@<TRIPOS>MOLECULE
SFF
   41    43     1     0     0
SMALL
abcg2


@<TRIPOS>ATOM
      1 C15         -3.6210    -1.0200     1.0550 c6         1 SFF      -0.090900
      2 C16         -4.9630    -0.4200     0.6490 c6         1 SFF      -0.070400
      3 C17         -5.1390    -0.4130    -0.8660 c6         1 SFF      -0.079400
      4 C18         -3.9850     0.3150    -1.5470 c6         1 SFF      -0.070400
      5 C19         -2.6420    -0.2870    -1.1490 c6         1 SFF      -0.090900
      6 C14         -2.4670    -0.2970     0.3690 c6         1 SFF       0.243500
      7 N13         -1.2120    -0.9290     0.7460 nu         1 SFF      -0.865400
      8 C8          -0.0360    -0.3080     0.7360 c2         1 SFF       0.956500
      9 O7           0.9750    -1.1510     0.8970 os         1 SFF      -0.493600
     10 C3           2.3310    -0.6900     1.0430 c6         1 SFF       0.209300
     11 C2           3.2340    -1.8640     0.7110 c6         1 SFF      -0.068400
     12 C1           3.1800    -2.2420    -0.7650 c6         1 SFF      -0.071400
     13 C6           3.4850    -1.0400    -1.6520 c6         1 SFF      -0.074400
     14 C5           2.5430     0.1270    -1.3630 c6         1 SFF      -0.036400
     15 C4           2.6100     0.4890     0.1170 c6         1 SFF      -0.387700
     16 S10          1.4420     1.7690     0.5720 sy         1 SFF       1.271600
     17 O11          1.7630     2.2180     1.9250 o          1 SFF      -0.534000
     18 O12          1.3810     2.7940    -0.4620 o          1 SFF      -0.534000
     19 N9           0.0290     0.9800     0.5630 ne         1 SFF      -0.896300
     20 H1          -3.4940    -0.9760     2.1390 hc         1 SFF       0.046950
     21 H2          -3.5980    -2.0800     0.7740 hc         1 SFF       0.046950
     22 H3          -5.7720    -0.9780     1.1250 hc         1 SFF       0.047200
     23 H4          -5.0320     0.6060     1.0250 hc         1 SFF       0.047200
     24 H5          -5.1850    -1.4450    -1.2310 hc         1 SFF       0.041700
     25 H6          -6.0910     0.0530    -1.1320 hc         1 SFF       0.041700
     26 H7          -4.0980     0.2800    -2.6330 hc         1 SFF       0.047200
     27 H8          -4.0070     1.3730    -1.2670 hc         1 SFF       0.047200
     28 H9          -2.5760    -1.3170    -1.5150 hc         1 SFF       0.046950
     29 H10         -1.8210     0.2680    -1.6090 hc         1 SFF       0.046950
     30 H11         -2.4340     0.7340     0.7290 h1         1 SFF       0.099700
     31 H12         -1.1950    -1.9370     0.7970 hn         1 SFF       0.499000
     32 H13          2.4740    -0.3940     2.0860 h1         1 SFF       0.083700
     33 H14          4.2510    -1.5670     0.9810 hc         1 SFF       0.059700
     34 H15          2.9740    -2.7100     1.3500 hc         1 SFF       0.059700
     35 H16          3.8970    -3.0420    -0.9570 hc         1 SFF       0.046700
     36 H17          2.1930    -2.6430    -1.0140 hc         1 SFF       0.046700
     37 H18          4.5180    -0.7170    -1.4880 hc         1 SFF       0.045200
     38 H19          3.4030    -1.3140    -2.7050 hc         1 SFF       0.045200
     39 H20          2.8250     0.9950    -1.9580 hc         1 SFF       0.058700
     40 H21          1.5250    -0.1410    -1.6590 hc         1 SFF       0.058700
     41 H22          3.6020     0.8790     0.3640 h1         1 SFF       0.120700
@<TRIPOS>BOND
     1     1     2 1   
     2     1     6 1   
     3     1    20 1   
     4     1    21 1   
     5     2     3 1   
     6     2    22 1   
     7     2    23 1   
     8     3     4 1   
     9     3    24 1   
    10     3    25 1   
    11     4     5 1   
    12     4    26 1   
    13     4    27 1   
    14     5     6 1   
    15     5    28 1   
    16     5    29 1   
    17     6     7 1   
    18     6    30 1   
    19     7     8 1   
    20     7    31 1   
    21     8     9 1   
    22     8    19 2   
    23     9    10 1   
    24    10    11 1   
    25    10    15 1   
    26    10    32 1   
    27    11    12 1   
    28    11    33 1   
    29    11    34 1   
    30    12    13 1   
    31    12    35 1   
    32    12    36 1   
    33    13    14 1   
    34    13    37 1   
    35    13    38 1   
    36    14    15 1   
    37    14    39 1   
    38    14    40 1   
    39    15    16 1   
    40    15    41 1   
    41    16    17 2   
    42    16    18 2   
    43    16    19 1   
@<TRIPOS>SUBSTRUCTURE
     1 SFF         1 TEMP              0 ****  ****    0 ROOT
