@<TRIPOS>MOLECULE
SFG
   49    51     1     0     0
SMALL
abcg2


@<TRIPOS>ATOM
      1 N            6.1290    41.0590    43.0930 n8         1 SFG      -0.975200
      2 CA           5.4030    40.1720    42.1650 c3         1 SFG       0.026500
      3 C            5.0320    40.9340    40.8650 c          1 SFG       0.707000
      4 O            4.3380    41.9750    40.9780 o          1 SFG      -0.731500
      5 OXT          5.4390    40.4330    39.7840 o          1 SFG      -0.731500
      6 CB           4.1530    39.6370    42.8640 c3         1 SFG      -0.047400
      7 CG           3.3240    38.6990    41.9920 c3         1 SFG      -0.061400
      8 CD           2.0720    38.1470    42.6750 c3         1 SFG       0.163500
      9 NE           2.4500    37.2100    43.7440 n8         1 SFG      -0.993200
     10 C5           1.1270    37.5490    41.6230 c3         1 SFG      -0.132400
     11 C4          -0.1970    37.0460    42.1740 c5         1 SFG       0.160300
     12 O4          -0.8620    38.0930    42.9390 os         1 SFG      -0.450000
     13 C3          -1.1930    36.6450    41.0920 c5         1 SFG       0.148300
     14 O3          -2.0640    35.6470    41.6160 oh         1 SFG      -0.720000
     15 C2          -1.9440    37.9510    40.8490 c5         1 SFG       0.088300
     16 O2          -3.2030    37.7100    40.2580 oh         1 SFG      -0.720000
     17 C1          -2.0280    38.5310    42.2710 c5         1 SFG       0.286300
     18 N9          -2.0980    39.9770    42.3180 na         1 SFG      -0.307300
     19 C8          -1.1230    40.8730    41.9330 cc         1 SFG       0.430700
     20 N7          -1.4810    42.1230    42.0930 nd         1 SFG      -0.543100
     21 C7          -2.7640    42.0570    42.6100 ca         1 SFG      -0.093600
     22 C6          -3.6920    43.0440    42.9940 ca         1 SFG       0.444900
     23 N6          -3.4430    44.3580    42.8900 nv         1 SFG      -1.069900
     24 N1          -4.8830    42.6380    43.4770 nb         1 SFG      -0.308000
     25 C10         -5.1330    41.3270    43.5700 ca         1 SFG       0.168900
     26 N3          -4.3400    40.3100    43.2360 nb         1 SFG      -0.223000
     27 C9          -3.1630    40.7300    42.7600 ca         1 SFG       0.127500
     28 HN1          6.4120    40.5210    43.9070 hn         1 SFG       0.363000
     29 HN2          6.9900    41.3760    42.6580 hn         1 SFG       0.363000
     30 HA           6.0190    39.3170    41.8600 h1         1 SFG       0.000700
     31 HB1          4.4580    39.1170    43.7770 hc         1 SFG       0.036700
     32 HB2          3.5400    40.4900    43.1690 hc         1 SFG       0.036700
     33 HG1          3.0140    39.2310    41.0890 hc         1 SFG       0.046700
     34 HG2          3.9390    37.8560    41.6560 hc         1 SFG       0.046700
     35 HD           1.5520    38.9790    43.1590 h1         1 SFG       0.071700
     36 HNE1         1.6330    36.9250    44.2730 hn         1 SFG       0.382500
     37 HNE2         2.8350    36.3640    43.3330 hn         1 SFG       0.382500
     38 H5'1         0.9370    38.3030    40.8530 hc         1 SFG       0.052700
     39 H5'2         1.6270    36.7080    41.1300 hc         1 SFG       0.052700
     40 H4          -0.0410    36.2080    42.8540 h1         1 SFG       0.083700
     41 H3          -0.6940    36.2860    40.1880 h1         1 SFG       0.066700
     42 HO3         -2.8490    35.6140    41.0510 ho         1 SFG       0.524000
     43 H2          -1.3370    38.6060    40.2190 h1         1 SFG       0.063700
     44 HO2         -3.5640    38.5420    39.9270 ho         1 SFG       0.525000
     45 H1          -2.9300    38.1660    42.7650 h2         1 SFG       0.109700
     46 H8          -0.1700    40.5380    41.5560 h5         1 SFG       0.090800
     47 HN61        -4.1220    45.0240    43.2170 hn         1 SFG       0.507000
     48 HN62        -2.5470    44.6870    42.5730 hn         1 SFG       0.507000
     49 H6          -6.1070    41.0630    43.9670 h5         1 SFG       0.039100
@<TRIPOS>BOND
     1     1     2 1   
     2     1    28 1   
     3     1    29 1   
     4     2     3 1   
     5     2     6 1   
     6     2    30 1   
     7     3     4 1   
     8     3     5 1   
     9     6     7 1   
    10     6    31 1   
    11     6    32 1   
    12     7     8 1   
    13     7    33 1   
    14     7    34 1   
    15     8     9 1   
    16     8    10 1   
    17     8    35 1   
    18     9    36 1   
    19     9    37 1   
    20    10    11 1   
    21    10    38 1   
    22    10    39 1   
    23    11    12 1   
    24    11    13 1   
    25    11    40 1   
    26    12    17 1   
    27    13    14 1   
    28    13    15 1   
    29    13    41 1   
    30    14    42 1   
    31    15    16 1   
    32    15    17 1   
    33    15    43 1   
    34    16    44 1   
    35    17    18 1   
    36    17    45 1   
    37    18    19 1   
    38    18    27 1   
    39    19    20 2   
    40    19    46 1   
    41    20    21 1   
    42    21    22 ar  
    43    21    27 ar  
    44    22    23 1   
    45    22    24 ar  
    46    23    47 1   
    47    23    48 1   
    48    24    25 ar  
    49    25    26 ar  
    50    25    49 1   
    51    26    27 ar  
@<TRIPOS>SUBSTRUCTURE
     1 SFG         1 TEMP              0 ****  ****    0 ROOT
