@<TRIPOS>MOLECULE
SFG
   49    51     1     0     0
SMALL
No Charge or Current Charge


@<TRIPOS>ATOM
      1 N            5.9640    41.1590    43.4420 n8         1 SFG      -0.975200
      2 CA           5.0710    40.5620    42.3860 c3         1 SFG       0.026500
      3 C            4.5970    41.5490    41.2320 c          1 SFG       0.707000
      4 O            3.7220    42.3730    41.4720 o          1 SFG      -0.731500
      5 OXT          5.1640    41.4810    40.1480 o          1 SFG      -0.731500
      6 CB           3.8830    39.8160    43.0560 c3         1 SFG      -0.047400
      7 CG           3.0270    38.9800    42.0670 c3         1 SFG      -0.061400
      8 CD           1.8500    38.2110    42.7250 c3         1 SFG       0.163500
      9 NE           2.3560    37.2050    43.6810 n8         1 SFG      -0.993200
     10 C5           0.9420    37.5350    41.6670 c3         1 SFG      -0.132400
     11 C4          -0.3460    36.8620    42.2240 c5         1 SFG       0.160300
     12 O4          -1.1600    37.8540    42.8940 os         1 SFG      -0.450000
     13 C3          -1.2910    36.2540    41.1360 c5         1 SFG       0.148300
     14 O3          -2.2550    35.3340    41.6630 oh         1 SFG      -0.720000
     15 C2          -2.0190    37.5360    40.6390 c5         1 SFG       0.088300
     16 O2          -3.2750    37.1980    40.0090 oh         1 SFG      -0.720000
     17 C1          -2.1740    38.3440    41.9830 c5         1 SFG       0.286300
     18 N9          -2.1040    39.8060    41.9260 na         1 SFG      -0.307300
     19 C8          -1.3520    40.5710    41.0250 cc         1 SFG       0.430700
     20 N7          -1.5410    41.8900    41.2230 nd         1 SFG      -0.543100
     21 C7          -2.4430    41.9300    42.2900 ca         1 SFG      -0.093600
     22 C6          -3.0110    43.0430    42.9450 ca         1 SFG       0.444900
     23 N6          -2.7310    44.3260    42.5920 nv         1 SFG      -1.069900
     24 N1          -3.8630    42.8850    43.9700 nb         1 SFG      -0.308000
     25 C10         -4.1400    41.6050    44.3210 ca         1 SFG       0.168900
     26 N3          -3.6460    40.4820    43.7480 nb         1 SFG      -0.223000
     27 C9          -2.7890    40.6760    42.7260 ca         1 SFG       0.127500
     28 HN1          6.2990    40.4140    44.0630 hn         1 SFG       0.363000
     29 HN2          6.8180    41.5160    42.9970 hn         1 SFG       0.363000
     30 HA           5.6830    39.7920    41.8970 h1         1 SFG       0.000700
     31 HB1          4.2790    39.1520    43.8340 hc         1 SFG       0.036700
     32 HB2          3.2350    40.5420    43.5630 hc         1 SFG       0.036700
     33 HG1          2.6160    39.6510    41.3040 hc         1 SFG       0.046700
     34 HG2          3.6760    38.2690    41.5400 hc         1 SFG       0.046700
     35 HD           1.2450    38.9430    43.2820 h1         1 SFG       0.071700
     36 HNE1         1.5620    36.7770    44.1680 hn         1 SFG       0.382500
     37 HNE2         2.7790    36.4290    43.1600 hn         1 SFG       0.382500
     38 H5'1         0.6740    38.2890    40.9190 hc         1 SFG       0.052700
     39 H5'2         1.5310    36.7840    41.1260 hc         1 SFG       0.052700
     40 H4          -0.0540    36.0910    42.9500 h1         1 SFG       0.083700
     41 H3          -0.7160    35.7820    40.3260 h1         1 SFG       0.066700
     42 HO3         -3.0770    35.5830    41.1670 ho         1 SFG       0.524000
     43 H2          -1.3730    38.0680    39.9270 h1         1 SFG       0.063700
     44 HO2         -3.6070    38.0040    39.5430 ho         1 SFG       0.525000
     45 H1          -3.1560    38.1140    42.4150 h2         1 SFG       0.109700
     46 H8          -0.7070    40.1310    40.2750 h5         1 SFG       0.090800
     47 HN61        -2.9260    45.0580    43.2690 hn         1 SFG       0.507000
     48 HN62        -1.9320    44.4720    41.9800 hn         1 SFG       0.507000
     49 H6          -4.8320    41.4650    45.1500 h5         1 SFG       0.039100
@<TRIPOS>BOND
     1     1     2 1   
     2     1    28 1   
     3     1    29 1   
     4     2     3 1   
     5     2     6 1   
     6     2    30 1   
     7     3     4 1   
     8     3     5 1   
     9     6     7 1   
    10     6    31 1   
    11     6    32 1   
    12     7     8 1   
    13     7    33 1   
    14     7    34 1   
    15     8     9 1   
    16     8    10 1   
    17     8    35 1   
    18     9    36 1   
    19     9    37 1   
    20    10    11 1   
    21    10    38 1   
    22    10    39 1   
    23    11    12 1   
    24    11    13 1   
    25    11    40 1   
    26    12    17 1   
    27    13    14 1   
    28    13    15 1   
    29    13    41 1   
    30    14    42 1   
    31    15    16 1   
    32    15    17 1   
    33    15    43 1   
    34    16    44 1   
    35    17    18 1   
    36    17    45 1   
    37    18    19 1   
    38    18    27 1   
    39    19    20 2   
    40    19    46 1   
    41    20    21 1   
    42    21    22 ar  
    43    21    27 ar  
    44    22    23 1   
    45    22    24 ar  
    46    23    47 1   
    47    23    48 1   
    48    24    25 ar  
    49    25    26 ar  
    50    25    49 1   
    51    26    27 ar  
@<TRIPOS>SUBSTRUCTURE
     1 SFG         1 TEMP              0 ****  ****    0 ROOT
