@<TRIPOS>MOLECULE
SFH
   48    51     1     0     0
SMALL
No Charge or Current Charge


@<TRIPOS>ATOM
      1 C1S         -1.7260     1.3030     0.3340 c5         1 SFH       0.310300
      2 C2N          1.9020    -2.1000     0.3050 ca         1 SFH       0.374900
      3 C2S         -2.0850     2.4770     1.3270 c5         1 SFH       0.104300
      4 C2X         -3.0750    -2.4970    -1.6000 ca         1 SFH       0.184900
      5 C3N          1.5720    -1.6210    -0.9780 ca         1 SFH      -0.214600
      6 C3S         -0.6670     2.9300     1.7850 c5         1 SFH       0.090300
      7 C4N          0.7020    -2.3990    -1.7710 ca         1 SFH      -0.013000
      8 C4S          0.0990     2.7730     0.4400 c5         1 SFH       0.150300
      9 C4X         -2.3450    -1.1320     0.0830 ca         1 SFH       0.134500
     10 C5N          0.2220    -3.6100    -1.2520 ca         1 SFH      -0.171000
     11 C5S          1.6410     2.8200     0.5540 c3         1 SFH       0.206600
     12 C5X         -2.4540    -2.1700     0.9730 ca         1 SFH      -0.101600
     13 C6N          0.6100    -4.0050     0.0360 ca         1 SFH       0.354900
     14 C6X         -2.9050    -3.4150     0.4890 ca         1 SFH       0.454900
     15 C7N          2.1130    -0.3190    -1.4990 c          1 SFH       0.660700
     16 C8X         -1.7560    -0.5020     2.1370 cc         1 SFH       0.390700
     17 N1N          1.4400    -3.2680     0.8070 nb         1 SFH      -0.674000
     18 N1X         -3.2170    -3.5860    -0.8050 nb         1 SFH      -0.305000
     19 N3X         -2.6530    -1.2660    -1.2220 nb         1 SFH      -0.222000
     20 N6X         -3.0500    -4.5040     1.2890 nv         1 SFH      -1.051900
     21 N7N          2.9970     0.3350    -0.7020 ns         1 SFH      -0.615300
     22 N7X         -2.0860    -1.7990     2.2700 nd         1 SFH      -0.539100
     23 N9X         -1.9100    -0.0660     0.8170 na         1 SFH      -0.302300
     24 O1           4.4530     2.1700     0.2310 o          1 SFH      -0.536000
     25 O2           4.0890     2.0050    -2.2940 o          1 SFH      -0.536000
     26 O2S         -2.7360     3.5820     0.6820 oh         1 SFH      -0.698000
     27 O3S         -0.6850     4.2790     2.2850 oh         1 SFH      -0.701000
     28 O4S         -0.3290     1.4680    -0.0090 os         1 SFH      -0.449000
     29 O5S          2.1850     2.6890    -0.7740 os         1 SFH      -0.553700
     30 O7N          1.7740     0.1140    -2.5890 o          1 SFH      -0.522100
     31 S1           3.5970     1.8670    -0.9190 s6         1 SFH       1.444500
     32 H1          -2.3470     1.3940    -0.5670 h2         1 SFH       0.136700
     33 H3          -2.6880     2.1220     2.1740 h1         1 SFH       0.074700
     34 H4          -3.3260    -2.6240    -2.6520 h5         1 SFH       0.049100
     35 H5          -0.2580     2.2410     2.5380 h1         1 SFH       0.048700
     36 H6           0.4060    -2.0780    -2.7690 ha         1 SFH       0.146000
     37 H7          -0.2200     3.5290    -0.2900 h1         1 SFH       0.109700
     38 H8          -0.4440    -4.2400    -1.8350 ha         1 SFH       0.134000
     39 H9           1.9520     3.7690     1.0100 h1         1 SFH       0.064200
     40 H10          1.9520     2.0030     1.2190 h1         1 SFH       0.064200
     41 H11          0.2500    -4.9400     0.4640 h4         1 SFH       0.025100
     42 H12         -1.4180     0.1520     2.9320 h5         1 SFH       0.057800
     43 H13         -2.6330    -4.4560     2.2150 hn         1 SFH       0.509000
     44 H14         -3.1210    -5.4210     0.8580 hn         1 SFH       0.509000
     45 H15          3.2640    -0.0360     0.1890 hn         1 SFH       0.344500
     46 H16         -2.2970     4.3740     1.0860 ho         1 SFH       0.528000
     47 H17         -0.6070     4.2370     3.2700 ho         1 SFH       0.522000
     48 H2           2.5620    -1.5450     0.9680 h4         1 SFH       0.017100
@<TRIPOS>BOND
     1     1     3 1   
     2     1    23 1   
     3     1    28 1   
     4     1    32 1   
     5     2     5 ar  
     6     2    17 ar  
     7     2    48 1   
     8     3     6 1   
     9     3    26 1   
    10     3    33 1   
    11     4    18 ar  
    12     4    19 ar  
    13     4    34 1   
    14     5     7 ar  
    15     5    15 1   
    16     6     8 1   
    17     6    27 1   
    18     6    35 1   
    19     7    10 ar  
    20     7    36 1   
    21     8    11 1   
    22     8    28 1   
    23     8    37 1   
    24     9    12 ar  
    25     9    19 ar  
    26     9    23 1   
    27    10    13 ar  
    28    10    38 1   
    29    11    29 1   
    30    11    39 1   
    31    11    40 1   
    32    12    14 ar  
    33    12    22 1   
    34    13    17 ar  
    35    13    41 1   
    36    14    18 ar  
    37    14    20 1   
    38    15    21 1   
    39    15    30 2   
    40    16    22 2   
    41    16    23 1   
    42    16    42 1   
    43    20    43 1   
    44    20    44 1   
    45    21    31 1   
    46    21    45 1   
    47    24    31 2   
    48    25    31 2   
    49    26    46 1   
    50    27    47 1   
    51    29    31 1   
@<TRIPOS>SUBSTRUCTURE
     1 SFH         1 TEMP              0 ****  ****    0 ROOT
