@<TRIPOS>MOLECULE
SFH
   48    51     1     0     0
SMALL
bcc


@<TRIPOS>ATOM
      1 C1S         -1.3900     1.1690    -0.0530 c5         1 SFH       0.257800
      2 C2N          1.5000    -2.5430    -0.1410 ca         1 SFH       0.440200
      3 C2S         -2.1180     2.3280     0.6330 c5         1 SFH       0.081100
      4 C2X         -3.4040    -2.6000    -0.7250 ca         1 SFH       0.710900
      5 C3N          1.2790    -1.5320    -1.0740 ca         1 SFH      -0.279900
      6 C3S         -0.9660     3.0620     1.3340 c5         1 SFH       0.067100
      7 C4N          0.3410    -1.7630    -2.0770 ca         1 SFH      -0.031000
      8 C4S          0.1770     2.8510     0.3420 c5         1 SFH       0.127100
      9 C4X         -2.0960    -1.1980     0.3400 ca         1 SFH       0.462800
     10 C5N         -0.3280    -2.9710    -2.0980 ca         1 SFH      -0.254300
     11 C5S          1.5250     2.8690     1.0160 c3         1 SFH       0.183400
     12 C5X         -1.7520    -2.1450     1.2900 ca         1 SFH      -0.232200
     13 C6N         -0.0260    -3.9110    -1.1230 ca         1 SFH       0.420200
     14 C6X         -2.3260    -3.4200     1.1350 ca         1 SFH       0.783200
     15 C7N          2.0420    -0.2590    -1.1070 c          1 SFH       0.727700
     16 C8X         -0.6940    -0.3970     1.8130 cc         1 SFH       0.390700
     17 N1N          0.8700    -3.7070    -0.1650 nb         1 SFH      -0.674000
     18 N1X         -3.1610    -3.6090     0.1070 nb         1 SFH      -0.831000
     19 N3X         -2.9220    -1.3700    -0.6880 nb         1 SFH      -0.748000
     20 N6X         -2.0770    -4.4290     1.9710 nv         1 SFH      -0.941500
     21 N7N          2.6790     0.0910     0.0680 ns         1 SFH      -0.682300
     22 N7X         -0.8730    -1.6240     2.2020 nd         1 SFH      -0.539100
     23 N9X         -1.4070    -0.0720     0.6910 na         1 SFH      -0.273000
     24 O1           4.0610     1.4400     1.5940 o          1 SFH      -0.606800
     25 O2           4.5100     1.6010    -0.8680 o          1 SFH      -0.606800
     26 O2S         -2.6690     3.1260    -0.3780 oh         1 SFH      -0.575800
     27 O3S         -1.1960     4.4260     1.5280 oh         1 SFH      -0.578800
     28 O4S         -0.0570     1.5730    -0.2240 os         1 SFH      -0.402600
     29 O5S          2.5560     2.6460     0.0270 os         1 SFH      -0.530500
     30 O7N          2.1200     0.4280    -2.0950 o          1 SFH      -0.522100
     31 S1           3.5970     1.4710     0.2300 s6         1 SFH       1.586100
     32 H1          -1.8560     0.9470    -1.0160 h2         1 SFH       0.136700
     33 H3          -2.8810     1.9710     1.3350 h1         1 SFH       0.074700
     34 H4          -4.0880    -2.8200    -1.5370 h5         1 SFH       0.049100
     35 H5          -0.7370     2.5580     2.2820 h1         1 SFH       0.048700
     36 H6           0.1420    -1.0090    -2.8260 ha         1 SFH       0.164000
     37 H7           0.1420     3.6210    -0.4380 h1         1 SFH       0.109700
     38 H8          -1.0650    -3.1880    -2.8580 ha         1 SFH       0.152000
     39 H9           1.7110     3.8470     1.4590 h1         1 SFH       0.064200
     40 H10          1.5750     2.1260     1.8140 h1         1 SFH       0.064200
     41 H11         -0.5290    -4.8720    -1.1180 h4         1 SFH       0.025100
     42 H12         -0.0570     0.3120     2.3190 h5         1 SFH       0.057800
     43 H13         -1.3790    -4.3400     2.6880 hn         1 SFH       0.453800
     44 H14         -2.4430    -5.3450     1.7780 hn         1 SFH       0.453800
     45 H15          2.5680    -0.4510     0.9150 hn         1 SFH       0.344500
     46 H16         -2.7090     4.0340    -0.0520 ho         1 SFH       0.429000
     47 H17         -1.6860     4.5460     2.3480 ho         1 SFH       0.423000
     48 H2           2.2420    -2.4370     0.6420 h4         1 SFH       0.017100
@<TRIPOS>BOND
     1     1     3 1   
     2     1    23 1   
     3     1    28 1   
     4     1    32 1   
     5     2     5 ar  
     6     2    17 ar  
     7     2    48 1   
     8     3     6 1   
     9     3    26 1   
    10     3    33 1   
    11     4    18 ar  
    12     4    19 ar  
    13     4    34 1   
    14     5     7 ar  
    15     5    15 1   
    16     6     8 1   
    17     6    27 1   
    18     6    35 1   
    19     7    10 ar  
    20     7    36 1   
    21     8    11 1   
    22     8    28 1   
    23     8    37 1   
    24     9    12 ar  
    25     9    19 ar  
    26     9    23 1   
    27    10    13 ar  
    28    10    38 1   
    29    11    29 1   
    30    11    39 1   
    31    11    40 1   
    32    12    14 ar  
    33    12    22 1   
    34    13    17 ar  
    35    13    41 1   
    36    14    18 ar  
    37    14    20 1   
    38    15    21 1   
    39    15    30 2   
    40    16    22 2   
    41    16    23 1   
    42    16    42 1   
    43    20    43 1   
    44    20    44 1   
    45    21    31 1   
    46    21    45 1   
    47    24    31 2   
    48    25    31 2   
    49    26    46 1   
    50    27    47 1   
    51    29    31 1   
@<TRIPOS>SUBSTRUCTURE
     1 SFH         1 TEMP              0 ****  ****    0 ROOT
