@<TRIPOS>MOLECULE
SFI
   40    42     1     0     0
SMALL
No Charge or Current Charge


@<TRIPOS>ATOM
      1 F           -2.1810     4.3190     0.1600 f          1 SFI      -0.195000
      2 S            6.2460    -0.2050     0.2190 ss         1 SFI      -0.187000
      3 C1          -2.9750    -0.5230    -0.5820 cc         1 SFI       0.060600
      4 O1          -5.6580     0.4350     0.7820 o          1 SFI      -0.719000
      5 C2          -2.2230     0.6950    -0.2840 ca         1 SFI      -0.002800
      6 O2          -5.6020    -1.7170     0.7390 o          1 SFI      -0.719000
      7 C3          -2.0810    -1.5900    -0.4460 cd         1 SFI      -0.168200
      8 C4          -0.9100     0.3900     0.0110 ca         1 SFI      -0.099800
      9 C5          -0.7850    -1.0510    -0.1010 cd         1 SFI       0.045800
     10 C6          -4.4330    -0.5720    -0.9720 c3         1 SFI      -0.197200
     11 C7          -2.6810     2.0220    -0.2440 ca         1 SFI      -0.100000
     12 C8           0.0100     1.3790     0.3980 ca         1 SFI      -0.067000
     13 C9           0.3580    -1.8150     0.0280 ce         1 SFI      -0.191200
     14 C10         -2.3890    -3.0570    -0.6560 c3         1 SFI      -0.018900
     15 C11         -1.7690     3.0330     0.1110 ca         1 SFI       0.160000
     16 C12         -0.4320     2.7170     0.4370 ca         1 SFI      -0.180000
     17 C13          1.7810    -1.3950     0.0660 ca         1 SFI      -0.022800
     18 C14         -5.3390    -0.6230     0.2620 c          1 SFI       0.725000
     19 C15          2.6370    -1.9040     1.0570 ca         1 SFI      -0.096500
     20 C16          2.2980    -0.5280    -0.9140 ca         1 SFI      -0.096500
     21 C17          3.9910    -1.5260     1.0860 ca         1 SFI      -0.112000
     22 C18          3.6520    -0.1480    -0.8870 ca         1 SFI      -0.112000
     23 C19          4.5070    -0.6440     0.1190 ca         1 SFI      -0.104000
     24 C20          6.5380     1.0140    -1.1390 c3         1 SFI       0.024900
     25 H6          -4.6320     0.3440    -1.5390 hc         1 SFI       0.039200
     26 H6A         -4.5760    -1.4720    -1.5790 hc         1 SFI       0.039200
     27 H7          -3.7140     2.2700    -0.4700 ha         1 SFI       0.154000
     28 H8           1.0290     1.1340     0.6810 ha         1 SFI       0.111000
     29 H9           0.2220    -2.8940    -0.0230 ha         1 SFI       0.178000
     30 H10         -1.9380    -3.4210    -1.5860 hc         1 SFI       0.031033
     31 H10A        -1.9960    -3.6630     0.1690 hc         1 SFI       0.031033
     32 H10B        -3.4650    -3.2530    -0.7070 hc         1 SFI       0.031033
     33 H12          0.2540     3.5080     0.7280 ha         1 SFI       0.113000
     34 H15          2.2510    -2.5870     1.8100 ha         1 SFI       0.119500
     35 H16          1.6470    -0.1460    -1.6970 ha         1 SFI       0.119500
     36 H17          4.6420    -1.9210     1.8620 ha         1 SFI       0.110500
     37 H18          4.0150     0.5270    -1.6560 ha         1 SFI       0.110500
     38 H20          7.5850     1.3390    -1.1190 h1         1 SFI       0.061700
     39 H20A         6.3270     0.5480    -2.1090 h1         1 SFI       0.061700
     40 H20B         5.8890     1.8880    -1.0000 h1         1 SFI       0.061700
@<TRIPOS>BOND
     1     1    15 1   
     2     2    23 1   
     3     2    24 1   
     4     3     5 1   
     5     3     7 2   
     6     3    10 1   
     7     4    18 1   
     8     5     8 ar  
     9     5    11 ar  
    10     6    18 1   
    11     7     9 1   
    12     7    14 1   
    13     8     9 1   
    14     8    12 ar  
    15     9    13 2   
    16    10    18 1   
    17    10    25 1   
    18    10    26 1   
    19    11    15 ar  
    20    11    27 1   
    21    12    16 ar  
    22    12    28 1   
    23    13    17 1   
    24    13    29 1   
    25    14    30 1   
    26    14    31 1   
    27    14    32 1   
    28    15    16 ar  
    29    16    33 1   
    30    17    19 ar  
    31    17    20 ar  
    32    19    21 ar  
    33    19    34 1   
    34    20    22 ar  
    35    20    35 1   
    36    21    23 ar  
    37    21    36 1   
    38    22    23 ar  
    39    22    37 1   
    40    24    38 1   
    41    24    39 1   
    42    24    40 1   
@<TRIPOS>SUBSTRUCTURE
     1 SFI         1 TEMP              0 ****  ****    0 ROOT
