@<TRIPOS>MOLECULE
SFI
   40    42     1     0     0
SMALL
bcc


@<TRIPOS>ATOM
      1 F           -2.3390     4.2600     0.1530 f          1 SFI      -0.159900
      2 S            6.2500    -0.4410     0.2490 ss         1 SFI      -0.266000
      3 C1          -2.9600    -0.5610    -0.5360 cc         1 SFI       0.060600
      4 O1          -6.5370    -0.3520     0.2180 o          1 SFI      -0.824300
      5 C2          -2.2570     0.6980    -0.2960 ca         1 SFI      -0.002800
      6 O2          -4.7410    -0.1860     1.5290 o          1 SFI      -0.824300
      7 C3          -2.0570    -1.5680    -0.4780 cd         1 SFI      -0.168200
      8 C4          -0.8860     0.4400    -0.1120 ca         1 SFI      -0.099800
      9 C5          -0.7110    -1.0180    -0.2410 cd         1 SFI       0.045800
     10 C6          -4.4180    -0.6280    -0.8020 c3         1 SFI      -0.197200
     11 C7          -2.7670     1.9830    -0.2100 ca         1 SFI      -0.118000
     12 C8          -0.0310     1.4800     0.2130 ca         1 SFI      -0.085000
     13 C9           0.3880    -1.7920    -0.1620 ce         1 SFI      -0.141200
     14 C10         -2.3120    -3.0250    -0.6520 c3         1 SFI      -0.018900
     15 C11         -1.8730     3.0000     0.0780 ca         1 SFI       0.124900
     16 C12         -0.5280     2.7780     0.3060 ca         1 SFI      -0.198000
     17 C13          1.7940    -1.4020    -0.0770 ca         1 SFI      -0.022800
     18 C14         -5.3110    -0.3610     0.4390 c          1 SFI       0.935600
     19 C15          2.6580    -2.1110     0.7660 ca         1 SFI      -0.114500
     20 C16          2.3450    -0.3970    -0.8700 ca         1 SFI      -0.114500
     21 C17          3.9980    -1.7920     0.8530 ca         1 SFI      -0.130000
     22 C18          3.6920    -0.0740    -0.8000 ca         1 SFI      -0.130000
     23 C19          4.5320    -0.7620     0.0720 ca         1 SFI       0.022900
     24 C20          6.5400     0.9540    -0.8520 c3         1 SFI      -0.023000
     25 H6          -4.6870     0.1000    -1.5760 hc         1 SFI       0.039200
     26 H6A         -4.6910    -1.6030    -1.2140 hc         1 SFI       0.039200
     27 H7          -3.8180     2.1960    -0.3560 ha         1 SFI       0.172000
     28 H8           1.0200     1.3140     0.4020 ha         1 SFI       0.129000
     29 H9           0.2240    -2.8660    -0.1660 ha         1 SFI       0.128000
     30 H10         -1.7330    -3.4400    -1.4800 hc         1 SFI       0.031033
     31 H10A        -2.0340    -3.5890     0.2410 hc         1 SFI       0.031033
     32 H10B        -3.3630    -3.2270    -0.8520 hc         1 SFI       0.031033
     33 H12          0.1270     3.6030     0.5500 ha         1 SFI       0.131000
     34 H15          2.2680    -2.9200     1.3720 ha         1 SFI       0.137500
     35 H16          1.7200     0.1320    -1.5780 ha         1 SFI       0.137500
     36 H17          4.6360    -2.3490     1.5290 ha         1 SFI       0.128500
     37 H18          4.0720     0.7110    -1.4390 ha         1 SFI       0.128500
     38 H20          7.5970     1.1960    -0.7560 h1         1 SFI       0.061700
     39 H20A         6.3350     0.7000    -1.8900 h1         1 SFI       0.061700
     40 H20B         5.9560     1.8240    -0.5580 h1         1 SFI       0.061700
@<TRIPOS>BOND
     1     1    15 1   
     2     2    23 1   
     3     2    24 1   
     4     3     5 1   
     5     3     7 2   
     6     3    10 1   
     7     4    18 1   
     8     5     8 ar  
     9     5    11 ar  
    10     6    18 1   
    11     7     9 1   
    12     7    14 1   
    13     8     9 1   
    14     8    12 ar  
    15     9    13 2   
    16    10    18 1   
    17    10    25 1   
    18    10    26 1   
    19    11    15 ar  
    20    11    27 1   
    21    12    16 ar  
    22    12    28 1   
    23    13    17 1   
    24    13    29 1   
    25    14    30 1   
    26    14    31 1   
    27    14    32 1   
    28    15    16 ar  
    29    16    33 1   
    30    17    19 ar  
    31    17    20 ar  
    32    19    21 ar  
    33    19    34 1   
    34    20    22 ar  
    35    20    35 1   
    36    21    23 ar  
    37    21    36 1   
    38    22    23 ar  
    39    22    37 1   
    40    24    38 1   
    41    24    39 1   
    42    24    40 1   
@<TRIPOS>SUBSTRUCTURE
     1 SFI         1 TEMP              0 ****  ****    0 ROOT
