@<TRIPOS>MOLECULE
SFJ
   38    38     1     0     0
SMALL
bcc


@<TRIPOS>ATOM
      1 CAA         -1.6750     4.1440     1.4830 c3         1 SFJ      -0.182100
      2 CAK          3.9910     1.2700    -0.4500 c3         1 SFJ       0.103400
      3 CAN         -1.5450     3.1310     0.3730 c          1 SFJ       0.672100
      4 CAO         -0.3610    -2.6850     1.0470 c          1 SFJ       0.910600
      5 CAQ          1.4810     0.9930    -0.3790 c3         1 SFJ       0.131100
      6 CAR         -2.1500    -0.2530     0.1700 c6         1 SFJ       0.106100
      7 CAS         -1.9140    -1.5140    -0.6480 c6         1 SFJ       0.103600
      8 CAT         -1.0420     0.7640    -0.1080 c6         1 SFJ       0.074700
      9 CAU          0.3300     0.1040     0.0920 c6         1 SFJ       0.132100
     10 CAV         -0.5200    -2.0540    -0.3730 c6         1 SFJ       0.213100
     11 NAL         -1.1680     1.8990     0.7680 ns         1 SFJ      -0.561900
     12 OAB         -1.7640     3.4270    -0.7930 o          1 SFJ      -0.601100
     13 OAD          5.1970     0.7620     0.0710 oh         1 SFJ      -0.583800
     14 OAE          0.7890    -2.7120     1.5000 o          1 SFJ      -0.793800
     15 OAF          2.8510     0.5050     1.5530 oh         1 SFJ      -0.555800
     16 OAG          1.4600     1.1540    -1.7760 oh         1 SFJ      -0.599800
     17 OAH         -3.3840     0.3420    -0.1250 oh         1 SFJ      -0.588800
     18 OAM          0.4270    -1.0890    -0.6630 os         1 SFJ      -0.427600
     19 FAI         -1.9970    -1.1870    -2.0000 f          1 SFJ      -0.253300
     20 OAC         -1.4100    -3.1260     1.5490 o          1 SFJ      -0.793800
     21 CAP          2.8360     0.4790     0.1440 c3         1 SFJ       0.110100
     22 H1          -1.3590     3.7720     2.4560 hc         1 SFJ       0.051367
     23 H2          -1.0850     5.0260     1.2380 hc         1 SFJ       0.051367
     24 H3          -2.7150     4.4620     1.5590 hc         1 SFJ       0.051367
     25 H6           1.3260     1.9940     0.0390 h1         1 SFJ       0.056700
     26 H7          -2.0940    -0.5410     1.2280 h1         1 SFJ       0.061700
     27 H8          -2.6750    -2.2680    -0.4410 h1         1 SFJ       0.087700
     28 H9          -1.1290     1.1230    -1.1350 h1         1 SFJ       0.117700
     29 H10          0.4680    -0.1080     1.1600 h1         1 SFJ       0.080700
     30 H11         -1.0460     1.7360     1.7550 hn         1 SFJ       0.304500
     31 H12          5.9200     1.2520    -0.3310 ho         1 SFJ       0.388000
     32 H13          2.8400     1.4240     1.8430 ho         1 SFJ       0.377000
     33 H14          1.4910     0.2800    -2.1820 ho         1 SFJ       0.426000
     34 H15         -4.0740    -0.1260     0.3560 ho         1 SFJ       0.399000
     35 H17          2.9530    -0.5750    -0.1310 h1         1 SFJ       0.120700
     36 H4           3.8620     2.3360    -0.2070 h1         1 SFJ       0.020200
     37 FAJ         -0.2590    -3.0650    -1.2760 f          1 SFJ      -0.228300
     38 H5           3.9590     1.1890    -1.5410 h1         1 SFJ       0.020200
@<TRIPOS>BOND
     1     1     3 1   
     2     1    22 1   
     3     1    23 1   
     4     1    24 1   
     5     2    13 1   
     6     2    21 1   
     7     2    36 1   
     8     2    38 1   
     9     3    11 1   
    10     3    12 2   
    11     4    10 1   
    12     4    14 1   
    13     4    20 1   
    14     5     9 1   
    15     5    16 1   
    16     5    21 1   
    17     5    25 1   
    18     6     7 1   
    19     6     8 1   
    20     6    17 1   
    21     6    26 1   
    22     7    10 1   
    23     7    19 1   
    24     7    27 1   
    25     8     9 1   
    26     8    11 1   
    27     8    28 1   
    28     9    18 1   
    29     9    29 1   
    30    10    18 1   
    31    10    37 1   
    32    11    30 1   
    33    13    31 1   
    34    15    21 1   
    35    15    32 1   
    36    16    33 1   
    37    17    34 1   
    38    21    35 1   
@<TRIPOS>SUBSTRUCTURE
     1 SFJ         1 TEMP              0 ****  ****    0 ROOT
