@<TRIPOS>MOLECULE
SFJ
   38    38     1     0     0
SMALL
No Charge or Current Charge


@<TRIPOS>ATOM
      1 CAA         -1.4190     4.2880     1.4350 c3         1 SFJ      -0.182100
      2 CAK          3.9890     1.4880    -0.3840 c3         1 SFJ       0.126600
      3 CAN         -1.1880     3.2550     0.3390 c          1 SFJ       0.605100
      4 CAO         -0.5860    -2.8820     1.0220 c          1 SFJ       0.700000
      5 CAQ          1.4380     0.9880    -0.4560 c3         1 SFJ       0.154300
      6 CAR         -2.2630    -0.2980     0.2120 c6         1 SFJ       0.129300
      7 CAS         -2.0710    -1.5790    -0.6550 c6         1 SFJ       0.122300
      8 CAT         -1.1450     0.7470    -0.1100 c6         1 SFJ       0.074700
      9 CAU          0.2650     0.0900     0.0700 c6         1 SFJ       0.155300
     10 CAV         -0.6540    -2.1780    -0.4170 c6         1 SFJ       0.255000
     11 NAL         -1.3060     1.9470     0.7480 ns         1 SFJ      -0.494900
     12 OAB         -0.9200     3.5670    -0.8110 o          1 SFJ      -0.601100
     13 OAD          5.2010     1.2010     0.3390 oh         1 SFJ      -0.706000
     14 OAE          0.1030    -2.3550     1.8880 o          1 SFJ      -0.688500
     15 OAF          2.7890     0.8170     1.5980 oh         1 SFJ      -0.618000
     16 OAG          1.5110     0.8640    -1.8900 oh         1 SFJ      -0.722000
     17 OAH         -3.5710     0.2800     0.0130 oh         1 SFJ      -0.651000
     18 OAM          0.3620    -1.1560    -0.6910 os         1 SFJ      -0.474000
     19 FAI         -2.2070    -1.2100    -2.0200 f          1 SFJ      -0.272000
     20 OAC         -0.7370    -4.1000     1.0500 o          1 SFJ      -0.688500
     21 CAP          2.8210     0.6280     0.1720 c3         1 SFJ       0.133300
     22 H1          -0.7380     4.0820     2.2690 hc         1 SFJ       0.051367
     23 H2          -1.3170     5.3180     1.0750 hc         1 SFJ       0.051367
     24 H3          -2.4010     4.1130     1.8890 hc         1 SFJ       0.051367
     25 H6           1.2280     2.0310    -0.1830 h1         1 SFJ       0.056700
     26 H7          -2.1560    -0.5870     1.2690 h1         1 SFJ       0.061700
     27 H8          -2.8420    -2.3280    -0.4270 h1         1 SFJ       0.087700
     28 H9          -1.2530     1.0490    -1.1620 h1         1 SFJ       0.117700
     29 H10          0.4270    -0.1020     1.1390 h1         1 SFJ       0.080700
     30 H11         -1.5620     1.8090     1.7180 hn         1 SFJ       0.304500
     31 H12          5.9240     1.7160    -0.0910 ho         1 SFJ       0.487000
     32 H13          3.7330     0.9510     1.8430 ho         1 SFJ       0.416000
     33 H14          1.1520    -0.0430    -2.0620 ho         1 SFJ       0.525000
     34 H15         -4.2350    -0.3750     0.3200 ho         1 SFJ       0.438000
     35 H17          3.0370    -0.4240    -0.0650 h1         1 SFJ       0.120700
     36 H4           3.7340     2.5520    -0.2920 h1         1 SFJ       0.020200
     37 FAJ         -0.4550    -3.1680    -1.4150 f          1 SFJ      -0.247000
     38 H5           4.1270     1.2690    -1.4510 h1         1 SFJ       0.020200
@<TRIPOS>BOND
     1     1     3 1   
     2     1    22 1   
     3     1    23 1   
     4     1    24 1   
     5     2    13 1   
     6     2    21 1   
     7     2    36 1   
     8     2    38 1   
     9     3    11 1   
    10     3    12 2   
    11     4    10 1   
    12     4    14 1   
    13     4    20 1   
    14     5     9 1   
    15     5    16 1   
    16     5    21 1   
    17     5    25 1   
    18     6     7 1   
    19     6     8 1   
    20     6    17 1   
    21     6    26 1   
    22     7    10 1   
    23     7    19 1   
    24     7    27 1   
    25     8     9 1   
    26     8    11 1   
    27     8    28 1   
    28     9    18 1   
    29     9    29 1   
    30    10    18 1   
    31    10    37 1   
    32    11    30 1   
    33    13    31 1   
    34    15    21 1   
    35    15    32 1   
    36    16    33 1   
    37    17    34 1   
    38    21    35 1   
@<TRIPOS>SUBSTRUCTURE
     1 SFJ         1 TEMP              0 ****  ****    0 ROOT
