@<TRIPOS>MOLECULE
SFK
   39    39     1     0     0
SMALL
No Charge or Current Charge


@<TRIPOS>ATOM
      1 CAR         -4.2990     1.1350     1.6890 c3         1 SFK      -0.084600
      2 CAQ         -3.8570     1.3180     0.2170 c3         1 SFK      -0.064700
      3 CAS         -3.9930     2.7950    -0.2160 c3         1 SFK      -0.084600
      4 CAP         -2.4200     0.7940    -0.0510 c3         1 SFK      -0.061400
      5 CAO         -2.2190    -0.7220     0.2030 c3         1 SFK      -0.161400
      6 CAM         -0.8300    -1.1740    -0.2610 c          1 SFK       0.603100
      7 OAN         -0.5580    -1.3490    -1.4410 o          1 SFK      -0.620100
      8 N            0.0730    -1.4040     0.7560 ns         1 SFK      -0.463900
      9 CA           1.5130    -1.7150     0.5700 c3         1 SFK      -0.031300
     10 C            1.9750    -2.8220     1.5670 c          1 SFK       0.719000
     11 O            1.7410    -2.6700     2.7590 o          1 SFK      -0.721000
     12 OXT          2.4850    -3.8340     1.1080 o          1 SFK      -0.721000
     13 CB           2.3900    -0.4410     0.6900 c3         1 SFK      -0.044100
     14 CG           1.9420     0.6920    -0.2270 ca         1 SFK      -0.045300
     15 CD1          2.2570     0.6620    -1.6000 ca         1 SFK      -0.113500
     16 CE1          1.8310     1.6980    -2.4490 ca         1 SFK      -0.117000
     17 CZ           1.0870     2.7710    -1.9310 ca         1 SFK      -0.136000
     18 CE2          0.7710     2.8090    -0.5630 ca         1 SFK      -0.117000
     19 CD2          1.1990     1.7740     0.2870 ca         1 SFK      -0.113500
     20 H1          -5.3000     1.5550     1.8460 hc         1 SFK       0.026700
     21 H2          -4.3420     0.0740     1.9620 hc         1 SFK       0.026700
     22 H3          -3.6060     1.6410     2.3710 hc         1 SFK       0.026700
     23 H4          -4.5450     0.7350    -0.4080 hc         1 SFK       0.041700
     24 H5          -3.3270     3.4380     0.3730 hc         1 SFK       0.026700
     25 H6          -3.7360     2.9150    -1.2760 hc         1 SFK       0.026700
     26 H7          -5.0220     3.1470    -0.0770 hc         1 SFK       0.026700
     27 H8          -2.1600     1.0080    -1.0960 hc         1 SFK       0.051200
     28 H9          -1.7090     1.3570     0.5660 hc         1 SFK       0.051200
     29 H10         -2.3320    -0.9160     1.2760 hc         1 SFK       0.046700
     30 H11         -2.9780    -1.2750    -0.3630 hc         1 SFK       0.046700
     31 H12         -0.2640    -1.2700     1.7020 hn         1 SFK       0.288500
     32 H13          1.6480    -2.1240    -0.4390 h1         1 SFK       0.060700
     33 H15          2.3830    -0.1020     1.7330 hc         1 SFK       0.059200
     34 H16          3.4310    -0.7090     0.4700 hc         1 SFK       0.059200
     35 H17          2.8260    -0.1690    -2.0090 ha         1 SFK       0.112500
     36 H18          2.0750     1.6670    -3.5080 ha         1 SFK       0.096500
     37 H19          0.7550     3.5720    -2.5880 ha         1 SFK       0.094000
     38 H20          0.1930     3.6380    -0.1600 ha         1 SFK       0.096500
     39 H21          0.9450     1.8090     1.3440 ha         1 SFK       0.112500
@<TRIPOS>BOND
     1     1     2 1   
     2     1    20 1   
     3     1    21 1   
     4     1    22 1   
     5     2     3 1   
     6     2     4 1   
     7     2    23 1   
     8     3    24 1   
     9     3    25 1   
    10     3    26 1   
    11     4     5 1   
    12     4    27 1   
    13     4    28 1   
    14     5     6 1   
    15     5    29 1   
    16     5    30 1   
    17     6     7 2   
    18     6     8 1   
    19     8     9 1   
    20     8    31 1   
    21     9    10 1   
    22     9    13 1   
    23     9    32 1   
    24    10    11 1   
    25    10    12 1   
    26    13    14 1   
    27    13    33 1   
    28    13    34 1   
    29    14    15 ar  
    30    14    19 ar  
    31    15    16 ar  
    32    15    35 1   
    33    16    17 ar  
    34    16    36 1   
    35    17    18 ar  
    36    17    37 1   
    37    18    19 ar  
    38    18    38 1   
    39    19    39 1   
@<TRIPOS>SUBSTRUCTURE
     1 SFK         1 TEMP              0 ****  ****    0 ROOT
