@<TRIPOS>MOLECULE
SFK
   39    39     1     0     0
SMALL
bcc


@<TRIPOS>ATOM
      1 CAR         -4.2740     2.1100     0.6960 c3         1 SFK      -0.084600
      2 CAQ         -4.6090     0.7120     0.1830 c3         1 SFK      -0.064700
      3 CAS         -5.7610     0.7760    -0.8150 c3         1 SFK      -0.084600
      4 CAP         -3.4040     0.0300    -0.4660 c3         1 SFK      -0.061400
      5 CAO         -2.2440    -0.2290     0.4850 c3         1 SFK      -0.161400
      6 CAM         -1.0670    -0.9070    -0.1880 c          1 SFK       0.670100
      7 OAN         -1.1900    -1.5990    -1.1910 o          1 SFK      -0.620100
      8 N            0.1230    -0.6740     0.3870 ns         1 SFK      -0.530900
      9 CA           1.3210    -1.3670    -0.0180 c3         1 SFK      -0.031300
     10 C            1.3090    -2.8790     0.3340 c          1 SFK       0.929600
     11 O            0.4590    -3.2770     1.1460 o          1 SFK      -0.826300
     12 OXT          2.1980    -3.5500    -0.2270 o          1 SFK      -0.826300
     13 CB           2.5430    -0.6990     0.6250 c3         1 SFK      -0.044100
     14 CG           2.6470     0.7670     0.3070 ca         1 SFK      -0.045300
     15 CD1          3.0280     1.1890    -0.9660 ca         1 SFK      -0.131500
     16 CE1          3.1020     2.5400    -1.2760 ca         1 SFK      -0.135000
     17 CZ           2.7940     3.4950    -0.3150 ca         1 SFK      -0.154000
     18 CE2          2.4140     3.0880     0.9560 ca         1 SFK      -0.135000
     19 CD2          2.3420     1.7340     1.2610 ca         1 SFK      -0.131500
     20 H1          -5.1600     2.6030     1.0980 hc         1 SFK       0.026700
     21 H2          -3.5270     2.0960     1.4900 hc         1 SFK       0.026700
     22 H3          -3.8880     2.7350    -0.1140 hc         1 SFK       0.026700
     23 H4          -4.9310     0.1010     1.0360 hc         1 SFK       0.041700
     24 H5          -5.4780     1.3590    -1.6950 hc         1 SFK       0.026700
     25 H6          -6.0490    -0.2200    -1.1570 hc         1 SFK       0.026700
     26 H7          -6.6440     1.2450    -0.3790 hc         1 SFK       0.026700
     27 H8          -3.7260    -0.9200    -0.8980 hc         1 SFK       0.051200
     28 H9          -3.0620     0.6470    -1.3050 hc         1 SFK       0.051200
     29 H10         -1.9040     0.6990     0.9510 hc         1 SFK       0.046700
     30 H11         -2.5760    -0.8710     1.3090 hc         1 SFK       0.046700
     31 H12          0.1300    -0.1820     1.2660 hn         1 SFK       0.288500
     32 H13          1.4200    -1.2740    -1.1030 h1         1 SFK       0.060700
     33 H15          2.5070    -0.8390     1.7100 hc         1 SFK       0.059200
     34 H16          3.4300    -1.2250     0.2690 hc         1 SFK       0.059200
     35 H17          3.2710     0.4520    -1.7230 ha         1 SFK       0.130500
     36 H18          3.4040     2.8480    -2.2690 ha         1 SFK       0.114500
     37 H19          2.8530     4.5490    -0.5550 ha         1 SFK       0.112000
     38 H20          2.1750     3.8230     1.7140 ha         1 SFK       0.114500
     39 H21          2.0480     1.4250     2.2580 ha         1 SFK       0.130500
@<TRIPOS>BOND
     1     1     2 1   
     2     1    20 1   
     3     1    21 1   
     4     1    22 1   
     5     2     3 1   
     6     2     4 1   
     7     2    23 1   
     8     3    24 1   
     9     3    25 1   
    10     3    26 1   
    11     4     5 1   
    12     4    27 1   
    13     4    28 1   
    14     5     6 1   
    15     5    29 1   
    16     5    30 1   
    17     6     7 2   
    18     6     8 1   
    19     8     9 1   
    20     8    31 1   
    21     9    10 1   
    22     9    13 1   
    23     9    32 1   
    24    10    11 1   
    25    10    12 1   
    26    13    14 1   
    27    13    33 1   
    28    13    34 1   
    29    14    15 ar  
    30    14    19 ar  
    31    15    16 ar  
    32    15    35 1   
    33    16    17 ar  
    34    16    36 1   
    35    17    18 ar  
    36    17    37 1   
    37    18    19 ar  
    38    18    38 1   
    39    19    39 1   
@<TRIPOS>SUBSTRUCTURE
     1 SFK         1 TEMP              0 ****  ****    0 ROOT
