@<TRIPOS>MOLECULE
SFQ
   29    30     1     0     0
SMALL
No Charge or Current Charge


@<TRIPOS>ATOM
      1 O3           3.2270     0.3710    -2.3370 o          1 SFQ      -0.691500
      2 C13          3.5080     1.3530    -1.6610 c          1 SFQ       0.717600
      3 O4           3.9440     2.3850    -2.1480 o          1 SFQ      -0.691500
      4 C8           3.3070     1.2980    -0.1540 ca         1 SFQ      -0.171600
      5 C9           3.2840     2.5110     0.5790 ca         1 SFQ      -0.070000
      6 C10          3.1040     2.5110     1.9710 ca         1 SFQ      -0.149000
      7 C11          2.9500     1.3020     2.6590 ca         1 SFQ      -0.116000
      8 C12          2.9710     0.0930     1.9500 ca         1 SFQ      -0.146000
      9 C7           3.1380     0.0760     0.5500 ca         1 SFQ       0.258000
     10 N1           3.1470    -1.1350    -0.1280 nu         1 SFQ      -0.883100
     11 S1           2.0260    -2.3650    -0.0180 sy         1 SFQ       1.128600
     12 O1           2.2000    -3.0430    -1.3020 o          1 SFQ      -0.565000
     13 O2           2.3090    -3.0190     1.2620 o          1 SFQ      -0.565000
     14 C4           0.4340    -1.5320     0.0190 ca         1 SFQ      -0.274500
     15 C2          -0.1450    -1.0690    -1.1800 ca         1 SFQ      -0.004000
     16 C1          -1.3780    -0.3950    -1.1470 ca         1 SFQ      -0.108500
     17 C3          -2.0280    -0.1810     0.0770 ca         1 SFQ       0.243000
     18 I1          -3.9270     0.8630     0.1220 i          1 SFQ      -0.346000
     19 C6          -1.4530    -0.6360     1.2730 ca         1 SFQ      -0.108500
     20 C5          -0.2210    -1.3110     1.2490 ca         1 SFQ      -0.004000
     21 H9           3.4030     3.4650     0.0690 ha         1 SFQ       0.130000
     22 H10          3.0880     3.4530     2.5160 ha         1 SFQ       0.094000
     23 H11          2.8180     1.3010     3.7380 ha         1 SFQ       0.092000
     24 H12          2.8650    -0.8370     2.5000 ha         1 SFQ       0.127000
     25 H14          3.1860    -0.9930    -1.1390 hn         1 SFQ       0.572000
     26 H2           0.3560    -1.2240    -2.1350 ha         1 SFQ       0.143500
     27 H13         -1.8280    -0.0370    -2.0690 ha         1 SFQ       0.122000
     28 H6          -1.9610    -0.4630     2.2180 ha         1 SFQ       0.122000
     29 H5           0.2200    -1.6540     2.1840 ha         1 SFQ       0.143500
@<TRIPOS>BOND
     1     1     2 1   
     2     2     3 1   
     3     2     4 1   
     4     4     5 ar  
     5     4     9 ar  
     6     5     6 ar  
     7     5    21 1   
     8     6     7 ar  
     9     6    22 1   
    10     7     8 ar  
    11     7    23 1   
    12     8     9 ar  
    13     8    24 1   
    14     9    10 1   
    15    10    11 1   
    16    10    25 1   
    17    11    12 2   
    18    11    13 2   
    19    11    14 1   
    20    14    15 ar  
    21    14    20 ar  
    22    15    16 ar  
    23    15    26 1   
    24    16    17 ar  
    25    16    27 1   
    26    17    18 1   
    27    17    19 ar  
    28    19    20 ar  
    29    19    28 1   
    30    20    29 1   
@<TRIPOS>SUBSTRUCTURE
     1 SFQ         1 TEMP              0 ****  ****    0 ROOT
