@<TRIPOS>MOLECULE
SFQ
   29    30     1     0     0
SMALL
bcc


@<TRIPOS>ATOM
      1 O3           2.9990     0.2670    -2.2160 o          1 SFQ      -0.796800
      2 C13          2.8160     1.3250    -1.5480 c          1 SFQ       0.928200
      3 O4           2.5280     2.4280    -2.0210 o          1 SFQ      -0.796800
      4 C8           2.9840     1.2250    -0.0380 ca         1 SFQ      -0.171600
      5 C9           2.9900     2.3920     0.7210 ca         1 SFQ      -0.088000
      6 C10          3.1510     2.3630     2.0960 ca         1 SFQ      -0.167000
      7 C11          3.3220     1.1440     2.7380 ca         1 SFQ      -0.134000
      8 C12          3.3340    -0.0330     2.0080 ca         1 SFQ      -0.164000
      9 C7           3.1570     0.0000     0.6270 ca         1 SFQ       0.119600
     10 N1           3.1840    -1.1880    -0.1410 nu         1 SFQ      -0.689500
     11 S1           2.0280    -2.3350     0.1160 sy         1 SFQ       1.270200
     12 O1           2.1320    -3.2510    -1.0090 o          1 SFQ      -0.635800
     13 O2           2.1430    -2.8570     1.4670 o          1 SFQ      -0.635800
     14 C4           0.4850    -1.4670     0.0020 ca         1 SFQ      -0.274500
     15 C2          -0.0040    -1.1310    -1.2530 ca         1 SFQ      -0.022000
     16 C1          -1.1770    -0.4000    -1.3550 ca         1 SFQ      -0.126500
     17 C3          -1.8370    -0.0100    -0.1960 ca         1 SFQ       0.105900
     18 I1          -3.6120     1.0990    -0.3480 i          1 SFQ      -0.208900
     19 C6          -1.3470    -0.3410     1.0580 ca         1 SFQ      -0.126500
     20 C5          -0.1730    -1.0740     1.1570 ca         1 SFQ      -0.022000
     21 H9           2.8580     3.3400     0.2150 ha         1 SFQ       0.148000
     22 H10          3.1500     3.2840     2.6650 ha         1 SFQ       0.112000
     23 H11          3.4580     1.1070     3.8110 ha         1 SFQ       0.110000
     24 H12          3.4970    -0.9760     2.5110 ha         1 SFQ       0.145000
     25 H14          3.1820    -0.8730    -1.1550 hn         1 SFQ       0.516800
     26 H2           0.5080    -1.4330    -2.1570 ha         1 SFQ       0.161500
     27 H13         -1.5600    -0.1450    -2.3330 ha         1 SFQ       0.140000
     28 H6          -1.8610    -0.0400     1.9610 ha         1 SFQ       0.140000
     29 H5           0.2090    -1.3330     2.1340 ha         1 SFQ       0.161500
@<TRIPOS>BOND
     1     1     2 1   
     2     2     3 1   
     3     2     4 1   
     4     4     5 ar  
     5     4     9 ar  
     6     5     6 ar  
     7     5    21 1   
     8     6     7 ar  
     9     6    22 1   
    10     7     8 ar  
    11     7    23 1   
    12     8     9 ar  
    13     8    24 1   
    14     9    10 1   
    15    10    11 1   
    16    10    25 1   
    17    11    12 2   
    18    11    13 2   
    19    11    14 1   
    20    14    15 ar  
    21    14    20 ar  
    22    15    16 ar  
    23    15    26 1   
    24    16    17 ar  
    25    16    27 1   
    26    17    18 1   
    27    17    19 ar  
    28    19    20 ar  
    29    19    28 1   
    30    20    29 1   
@<TRIPOS>SUBSTRUCTURE
     1 SFQ         1 TEMP              0 ****  ****    0 ROOT
