@<TRIPOS>MOLECULE
SFR
   35    36     1     0     0
SMALL
bcc


@<TRIPOS>ATOM
      1 O72         -4.2280     1.1800    -0.9240 o          1 SFR      -0.842300
      2 C7          -3.4280     0.7940    -0.0540 c          1 SFR       0.946600
      3 C6          -2.3850    -0.2710    -0.4770 c3         1 SFR      -0.188700
      4 N4          -0.5360     1.3470    -0.2350 nu         1 SFR      -0.683000
      5 C5          -1.0340     0.0380     0.1460 c5         1 SFR       0.341600
      6 C3           0.8580     1.4100    -0.1510 ce         1 SFR       0.047800
      7 C2           1.4700     0.2230    -0.2760 c2         1 SFR      -0.112600
      8 S1           0.2890    -1.0870    -0.4600 ss         1 SFR      -0.455700
      9 C31          1.5040     2.7650     0.0420 c          1 SFR       0.931800
     10 O71         -3.3750     1.1830     1.1330 o          1 SFR      -0.842300
     11 C61         -2.8490    -1.6950    -0.1460 c3         1 SFR       0.169100
     12 O62         -4.0770    -1.8980    -0.8190 oh         1 SFR      -0.571800
     13 C62         -2.9870    -1.9990     1.3390 c3         1 SFR      -0.117100
     14 C14          2.9090    -0.1580    -0.2980 c5         1 SFR       0.240300
     15 C15          3.4480    -0.6260     1.0550 c5         1 SFR      -0.105400
     16 C16          4.5210    -1.6240     0.6450 c5         1 SFR      -0.117400
     17 C17          3.8800    -2.2720    -0.5750 c5         1 SFR       0.138400
     18 O18          3.0730    -1.2710    -1.1790 os         1 SFR      -0.416600
     19 O32          2.7450     2.8020     0.1280 o          1 SFR      -0.827800
     20 O31          0.7140     3.7280     0.1120 o          1 SFR      -0.827800
     21 H2          -2.2570    -0.2200    -1.5640 hc         1 SFR       0.071700
     22 H3          -0.9980     2.1030     0.2520 hn         1 SFR       0.440800
     23 H5          -1.0870    -0.0590     1.2380 h2         1 SFR       0.044700
     24 H8          -2.0900    -2.3830    -0.5550 h1         1 SFR       0.001700
     25 H9          -4.3440    -2.8100    -0.6670 ho         1 SFR       0.355000
     26 H10         -3.3060    -3.0350     1.4780 hc         1 SFR       0.028367
     27 H11         -2.0390    -1.8870     1.8650 hc         1 SFR       0.028367
     28 H12         -3.7160    -1.3470     1.8170 hc         1 SFR       0.028367
     29 H13          3.5030     0.6850    -0.6580 h1         1 SFR       0.086700
     30 H14          3.8180     0.2120     1.6430 hc         1 SFR       0.058700
     31 H15          2.6600    -1.1220     1.6300 hc         1 SFR       0.058700
     32 H16          5.4450    -1.1100     0.3720 hc         1 SFR       0.027200
     33 H17          4.7580    -2.3510     1.4220 hc         1 SFR       0.027200
     34 H18          4.6150    -2.6310    -1.3000 h1         1 SFR       0.016700
     35 H19          3.2580    -3.1260    -0.2800 h1         1 SFR       0.016700
@<TRIPOS>BOND
     1     1     2 1   
     2     2     3 1   
     3     2    10 1   
     4     3     5 1   
     5     3    11 1   
     6     3    21 1   
     7     4     5 1   
     8     4     6 1   
     9     4    22 1   
    10     5     8 1   
    11     5    23 1   
    12     6     7 2   
    13     6     9 1   
    14     7     8 1   
    15     7    14 1   
    16     9    19 1   
    17     9    20 1   
    18    11    12 1   
    19    11    13 1   
    20    11    24 1   
    21    12    25 1   
    22    13    26 1   
    23    13    27 1   
    24    13    28 1   
    25    14    15 1   
    26    14    18 1   
    27    14    29 1   
    28    15    16 1   
    29    15    30 1   
    30    15    31 1   
    31    16    17 1   
    32    16    32 1   
    33    16    33 1   
    34    17    18 1   
    35    17    34 1   
    36    17    35 1   
@<TRIPOS>SUBSTRUCTURE
     1 SFR         1 TEMP              0 ****  ****    0 ROOT
