@<TRIPOS>MOLECULE
SFR
   35    36     1     0     0
SMALL
No Charge or Current Charge


@<TRIPOS>ATOM
      1 O72         -3.9410     1.5450    -0.6370 o          1 SFR      -0.737000
      2 C7          -3.4020     0.7780     0.1500 c          1 SFR       0.736000
      3 C6          -2.4060    -0.2470    -0.4050 c3         1 SFR      -0.188700
      4 N4          -0.5080     1.3570    -0.0760 nu         1 SFR      -0.738200
      5 C5          -1.0160    -0.0040     0.2190 c5         1 SFR       0.389500
      6 C3           0.9170     1.3260    -0.1730 ce         1 SFR       0.047800
      7 C2           1.4500     0.0970    -0.3740 c2         1 SFR      -0.112600
      8 S1           0.2440    -1.2080    -0.4410 ss         1 SFR      -0.503600
      9 C31          1.6470     2.6820     0.0190 c          1 SFR       0.721200
     10 O71         -3.5520     0.8650     1.3610 o          1 SFR      -0.737000
     11 C61         -2.9280    -1.7050    -0.2700 c3         1 SFR       0.192300
     12 O62         -4.2100    -1.8180    -0.8920 oh         1 SFR      -0.634000
     13 C62         -3.0290    -2.2610     1.1690 c3         1 SFR      -0.117100
     14 C14          2.9750    -0.1040    -0.5100 c5         1 SFR       0.263500
     15 C15          3.6110    -0.2930     0.9080 c5         1 SFR      -0.105400
     16 C16          4.5500    -1.5050     0.6910 c5         1 SFR      -0.117400
     17 C17          3.6740    -2.3320    -0.2700 c5         1 SFR       0.161600
     18 O18          3.2270    -1.3480    -1.2190 os         1 SFR      -0.463000
     19 O32          2.8670     2.7540    -0.0370 o          1 SFR      -0.722500
     20 O31          0.9580     3.6720     0.2460 o          1 SFR      -0.722500
     21 H2          -2.3310    -0.0670    -1.4830 hc         1 SFR       0.071700
     22 H3          -0.9150     2.1890     0.3570 hn         1 SFR       0.496000
     23 H5          -1.0740    -0.1470     1.3060 h2         1 SFR       0.044700
     24 H8          -2.2330    -2.3590    -0.8120 h1         1 SFR       0.001700
     25 H9          -4.4610    -2.7650    -0.8500 ho         1 SFR       0.394000
     26 H10         -3.3180    -3.3190     1.1480 hc         1 SFR       0.028367
     27 H11         -2.0640    -2.1950     1.6860 hc         1 SFR       0.028367
     28 H12         -3.7780    -1.7230     1.7610 hc         1 SFR       0.028367
     29 H13          3.4650     0.6920    -1.0840 h1         1 SFR       0.086700
     30 H14          4.1510     0.5980     1.2460 hc         1 SFR       0.058700
     31 H15          2.8490    -0.5160     1.6650 hc         1 SFR       0.058700
     32 H16          5.4970    -1.2130     0.2220 hc         1 SFR       0.027200
     33 H17          4.7810    -2.0370     1.6210 hc         1 SFR       0.027200
     34 H18          4.2290    -3.1290    -0.7840 h1         1 SFR       0.016700
     35 H19          2.8040    -2.7680     0.2400 h1         1 SFR       0.016700
@<TRIPOS>BOND
     1     1     2 1   
     2     2     3 1   
     3     2    10 1   
     4     3     5 1   
     5     3    11 1   
     6     3    21 1   
     7     4     5 1   
     8     4     6 1   
     9     4    22 1   
    10     5     8 1   
    11     5    23 1   
    12     6     7 2   
    13     6     9 1   
    14     7     8 1   
    15     7    14 1   
    16     9    19 1   
    17     9    20 1   
    18    11    12 1   
    19    11    13 1   
    20    11    24 1   
    21    12    25 1   
    22    13    26 1   
    23    13    27 1   
    24    13    28 1   
    25    14    15 1   
    26    14    18 1   
    27    14    29 1   
    28    15    16 1   
    29    15    30 1   
    30    15    31 1   
    31    16    17 1   
    32    16    32 1   
    33    16    33 1   
    34    17    18 1   
    35    17    34 1   
    36    17    35 1   
@<TRIPOS>SUBSTRUCTURE
     1 SFR         1 TEMP              0 ****  ****    0 ROOT
