@<TRIPOS>MOLECULE
SFT
  154   154     1     0     0
SMALL
bcc


@<TRIPOS>ATOM
      1 C42         24.7680    -3.1520    -0.4220 c3         1 SFT      -0.088100
      2 C32         23.5660    -2.2190    -0.4020 c3         1 SFT      -0.075400
      3 C22         22.2420    -2.9650    -0.2840 c3         1 SFT      -0.075400
      4 CCA         21.0280    -2.0450    -0.2600 c3         1 SFT      -0.074400
      5 C02         19.7090    -2.7960    -0.1290 c3         1 SFT      -0.074400
      6 C91         18.4920    -1.8790    -0.1010 c3         1 SFT      -0.074400
      7 C81         17.1750    -2.6330     0.0390 c3         1 SFT      -0.074400
      8 C71         15.9570    -1.7190     0.0720 c3         1 SFT      -0.074400
      9 C61         14.6430    -2.4760     0.2180 c3         1 SFT      -0.074400
     10 C51         13.4210    -1.5660     0.2570 c3         1 SFT      -0.074400
     11 C41         12.1100    -2.3270     0.4010 c3         1 SFT      -0.074400
     12 C31         10.8860    -1.4190     0.4450 c3         1 SFT      -0.074400
     13 C21          9.5760    -2.1850     0.5810 c3         1 SFT      -0.074400
     14 CBA          8.3500    -1.2800     0.6330 c3         1 SFT      -0.075400
     15 C01          7.0400    -2.0500     0.7440 c3         1 SFT      -0.072400
     16 C9           5.8140    -1.1480     0.8100 c3         1 SFT      -0.077400
     17 C8           4.5010    -1.9180     0.8730 c3         1 SFT      -0.066400
     18 C7           3.2780    -1.0130     0.9570 c3         1 SFT      -0.084400
     19 C6           1.9580    -1.7720     0.9400 c3         1 SFT      -0.061400
     20 C5           0.7520    -0.8430     0.9840 c3         1 SFT      -0.081400
     21 C4          -0.5850    -1.5650     0.8790 c3         1 SFT      -0.060400
     22 C3          -1.7500    -0.5840     0.9030 c3         1 SFT      -0.107400
     23 C2          -3.1170    -1.2360     0.6690 c3         1 SFT       0.075100
     24 O2          -3.3550    -2.3290     1.5080 oh         1 SFT      -0.588800
     25 C1          -4.2160    -0.1890     0.8630 c          1 SFT       0.632100
     26 O1          -4.9460    -0.2350     1.8430 o          1 SFT      -0.632100
     27 N1          -4.2830     0.7680    -0.0750 ns         1 SFT      -0.566900
     28 C28         -5.2090     1.8830    -0.0350 c3         1 SFT       0.051700
     29 C29         -4.5430     3.1500     0.4930 c3         1 SFT       0.134400
     30 O8          -3.5430     3.6240    -0.3900 os         1 SFT      -0.396600
     31 C1B         -2.2360     3.3180    -0.0770 c6         1 SFT       0.313900
     32 C2B         -1.4560     3.1100    -1.3770 c6         1 SFT       0.114100
     33 O2B         -1.9450     1.9760    -2.0540 oh         1 SFT      -0.591800
     34 O5          -1.7010     4.3780     0.6650 os         1 SFT      -0.415600
     35 C5B         -0.3720     4.1230     1.0740 c6         1 SFT       0.120100
     36 C6B          0.0640     5.2240     2.0150 c3         1 SFT       0.141400
     37 O6          -0.6990     5.1430     3.1950 oh         1 SFT      -0.589800
     38 C4B          0.5450     4.0040    -0.1440 c6         1 SFT       0.090100
     39 O4           0.5850     5.1980    -0.8880 oh         1 SFT      -0.562800
     40 C3B          0.0150     2.8910    -1.0460 c6         1 SFT       0.219100
     41 O3           0.7320     2.8330    -2.2630 os         1 SFT      -0.546500
     42 S            1.9510     1.7370    -2.4140 s6         1 SFT       1.494300
     43 O3S          2.4600     2.1020    -3.7350 o          1 SFT      -0.706200
     44 O1S          1.3150     0.4210    -2.3520 o          1 SFT      -0.706200
     45 O2S          2.8720     2.0100    -1.3080 o          1 SFT      -0.706200
     46 C27         -5.8310     2.0660    -1.4380 c3         1 SFT       0.174300
     47 O7          -6.5900     3.2420    -1.5080 oh         1 SFT      -0.577800
     48 C26         -6.5980     0.8360    -1.8380 c2         1 SFT      -0.202200
     49 C25         -7.8480     0.8140    -2.2890 c2         1 SFT      -0.164200
     50 C24         -8.5930    -0.4380    -2.6270 c3         1 SFT      -0.042200
     51 C23         -9.7900    -0.6650    -1.7030 c3         1 SFT      -0.073400
     52 C20        -10.5480    -1.9470    -2.0220 c3         1 SFT      -0.074400
     53 C19        -11.7300    -2.1930    -1.0920 c3         1 SFT      -0.074400
     54 C10        -12.4590    -3.4990    -1.3820 c3         1 SFT      -0.074400
     55 C11        -13.6330    -3.7560    -0.4460 c3         1 SFT      -0.074400
     56 C12        -14.3430    -5.0750    -0.7220 c3         1 SFT      -0.074400
     57 C13        -15.5110    -5.3410     0.2200 c3         1 SFT      -0.074400
     58 C14        -16.2100    -6.6680    -0.0490 c3         1 SFT      -0.074400
     59 C15        -17.3720    -6.9400     0.8970 c3         1 SFT      -0.074400
     60 C16        -18.0670    -8.2700     0.6300 c3         1 SFT      -0.075400
     61 C17        -19.2240    -8.5480     1.5810 c3         1 SFT      -0.075400
     62 C18        -19.9120    -9.8780     1.3020 c3         1 SFT      -0.088100
     63 H2'1        24.8120    -3.7540     0.4880 hc         1 SFT       0.030367
     64 H2'2        24.7180    -3.8390    -1.2690 hc         1 SFT       0.030367
     65 H2'3        25.7060    -2.6010    -0.4980 hc         1 SFT       0.030367
     66 H2A1        23.6600    -1.5160     0.4320 hc         1 SFT       0.036200
     67 H2A2        23.5580    -1.6080    -1.3110 hc         1 SFT       0.036200
     68 H2B1        22.1470    -3.6690    -1.1190 hc         1 SFT       0.036700
     69 H2B2        22.2520    -3.5760     0.6260 hc         1 SFT       0.036700
     70 H2C1        21.1270    -1.3370     0.5700 hc         1 SFT       0.036700
     71 H2C2        21.0130    -1.4390    -1.1730 hc         1 SFT       0.036700
     72 H2D1        19.6090    -3.5030    -0.9600 hc         1 SFT       0.036700
     73 H2D2        19.7260    -3.4020     0.7840 hc         1 SFT       0.036700
     74 H1'1        18.5930    -1.1680     0.7260 hc         1 SFT       0.037200
     75 H1'2        18.4710    -1.2760    -1.0160 hc         1 SFT       0.037200
     76 H1A1        17.0730    -3.3420    -0.7890 hc         1 SFT       0.036200
     77 H1A2        17.1990    -3.2370     0.9530 hc         1 SFT       0.036200
     78 H1B1        16.0600    -1.0080     0.9000 hc         1 SFT       0.037200
     79 H1B2        15.9300    -1.1160    -0.8420 hc         1 SFT       0.037200
     80 H1C1        14.5390    -3.1860    -0.6110 hc         1 SFT       0.035700
     81 H1C2        14.6710    -3.0820     1.1310 hc         1 SFT       0.035700
     82 H1D1        13.5240    -0.8580     1.0870 hc         1 SFT       0.037200
     83 H1D2        13.3920    -0.9600    -0.6560 hc         1 SFT       0.037200
     84 H1E1        12.0060    -3.0330    -0.4300 hc         1 SFT       0.035200
     85 H1E2        12.1410    -2.9360     1.3120 hc         1 SFT       0.035200
     86 H1F1        10.9860    -0.7180     1.2810 hc         1 SFT       0.038200
     87 H1F2        10.8570    -0.8060    -0.4620 hc         1 SFT       0.038200
     88 H1G1         9.4750    -2.8820    -0.2590 hc         1 SFT       0.033700
     89 H1G2         9.6070    -2.8040     1.4840 hc         1 SFT       0.033700
     90 H1H1         8.4430    -0.5930     1.4820 hc         1 SFT       0.039700
     91 H1H2         8.3260    -0.6500    -0.2640 hc         1 SFT       0.039700
     92 H1I1         6.9450    -2.7270    -0.1120 hc         1 SFT       0.030700
     93 H1I2         7.0670    -2.6900     1.6330 hc         1 SFT       0.030700
     94 H9'1         5.8940    -0.4900     1.6830 hc         1 SFT       0.045700
     95 H9'2         5.8010    -0.4870    -0.0640 hc         1 SFT       0.045700
     96 H8'1         4.4180    -2.5600    -0.0120 hc         1 SFT       0.026200
     97 H8'2         4.5150    -2.5950     1.7350 hc         1 SFT       0.026200
     98 H7'1         3.3370    -0.4100     1.8700 hc         1 SFT       0.057200
     99 H7'2         3.2890    -0.3000     0.1250 hc         1 SFT       0.057200
    100 H6'1         1.9060    -2.3840     0.0320 hc         1 SFT       0.028200
    101 H6'2         1.9190    -2.4740     1.7810 hc         1 SFT       0.028200
    102 H5'1         0.7780    -0.2570     1.9100 hc         1 SFT       0.049200
    103 H5'2         0.8410    -0.1280     0.1610 hc         1 SFT       0.049200
    104 H4'1        -0.6140    -2.1430    -0.0510 hc         1 SFT       0.042200
    105 H4'2        -0.6850    -2.2850     1.6950 hc         1 SFT       0.042200
    106 H3'1        -1.7550    -0.0390     1.8540 hc         1 SFT       0.051200
    107 H3'2        -1.5890     0.1610     0.1180 hc         1 SFT       0.051200
    108 H2          -3.1500    -1.6040    -0.3630 h1         1 SFT       0.082700
    109 HA          -3.7730    -1.9930     2.3110 ho         1 SFT       0.422000
    110 H1          -3.6180     0.7490    -0.8350 hn         1 SFT       0.343500
    111 H19         -6.0060     1.6250     0.6680 h1         1 SFT       0.076700
    112 HA1         -5.2890     3.9380     0.6070 h1         1 SFT       0.058700
    113 HB2         -4.1350     2.9500     1.4890 h1         1 SFT       0.058700
    114 H20         -2.1770     2.3940     0.5260 h2         1 SFT       0.021700
    115 H2B         -1.5570     4.0140    -1.9920 h1         1 SFT       0.084700
    116 HB          -2.5580     2.2630    -2.7360 ho         1 SFT       0.405000
    117 H5          -0.3240     3.1680     1.6270 h1         1 SFT       0.047700
    118 H6A1         1.1350     5.0900     2.2150 h1         1 SFT       0.027700
    119 H6A2        -0.0560     6.1980     1.5240 h1         1 SFT       0.027700
    120 H6          -0.3880     5.8260     3.7960 ho         1 SFT       0.394000
    121 H4           1.5440     3.7170     0.2050 h1         1 SFT       0.075700
    122 HC           1.2780     5.7600    -0.5330 ho         1 SFT       0.390000
    123 H3           0.0960     1.9470    -0.4910 h1         1 SFT       0.046700
    124 H23         -5.0090     2.2070    -2.1500 h1         1 SFT       0.093700
    125 HD          -7.3570     3.1510    -0.9300 ho         1 SFT       0.396000
    126 H22         -6.0620    -0.1030    -1.7390 ha         1 SFT       0.132000
    127 H21         -8.4000     1.7430    -2.4120 ha         1 SFT       0.119000
    128 H6C1        -8.9520    -0.3860    -3.6610 hc         1 SFT       0.045200
    129 H6C2        -7.9210    -1.2980    -2.5700 hc         1 SFT       0.045200
    130 H7C1        -9.4390    -0.6970    -0.6660 hc         1 SFT       0.040200
    131 H7C2       -10.4700     0.1910    -1.7690 hc         1 SFT       0.040200
    132 H8C1       -10.9000    -1.9160    -3.0590 hc         1 SFT       0.037200
    133 H8C2        -9.8590    -2.7970    -1.9610 hc         1 SFT       0.037200
    134 H9C1       -11.3780    -2.1980    -0.0540 hc         1 SFT       0.037200
    135 H9C2       -12.4330    -1.3560    -1.1690 hc         1 SFT       0.037200
    136 H101       -12.8150    -3.4960    -2.4180 hc         1 SFT       0.037200
    137 H102       -11.7510    -4.3320    -1.3090 hc         1 SFT       0.037200
    138 H111       -13.2780    -3.7460     0.5910 hc         1 SFT       0.037200
    139 H112       -14.3500    -2.9320    -0.5280 hc         1 SFT       0.037200
    140 H121       -14.7020    -5.0860    -1.7570 hc         1 SFT       0.036700
    141 H122       -13.6220    -5.8970    -0.6440 hc         1 SFT       0.036700
    142 H131       -15.1530    -5.3240     1.2550 hc         1 SFT       0.036700
    143 H132       -16.2370    -4.5240     0.1380 hc         1 SFT       0.036700
    144 H141       -16.5720    -6.6850    -1.0830 hc         1 SFT       0.037200
    145 H142       -15.4820    -7.4830     0.0290 hc         1 SFT       0.037200
    146 H151       -17.0100    -6.9220     1.9310 hc         1 SFT       0.036200
    147 H152       -18.1020    -6.1270     0.8180 hc         1 SFT       0.036200
    148 H161       -18.4340    -8.2870    -0.4020 hc         1 SFT       0.037200
    149 H162       -17.3360    -9.0830     0.7040 hc         1 SFT       0.037200
    150 H171       -18.8550    -8.5350     2.6120 hc         1 SFT       0.036200
    151 H172       -19.9530    -7.7360     1.5110 hc         1 SFT       0.036200
    152 H181       -20.7330   -10.0600     1.9970 hc         1 SFT       0.030367
    153 H182       -20.3230    -9.9030     0.2910 hc         1 SFT       0.030367
    154 H183       -19.2120   -10.7100     1.3930 hc         1 SFT       0.030367
@<TRIPOS>BOND
     1     1     2 1   
     2     1    63 1   
     3     1    64 1   
     4     1    65 1   
     5     2     3 1   
     6     2    66 1   
     7     2    67 1   
     8     3     4 1   
     9     3    68 1   
    10     3    69 1   
    11     4     5 1   
    12     4    70 1   
    13     4    71 1   
    14     5     6 1   
    15     5    72 1   
    16     5    73 1   
    17     6     7 1   
    18     6    74 1   
    19     6    75 1   
    20     7     8 1   
    21     7    76 1   
    22     7    77 1   
    23     8     9 1   
    24     8    78 1   
    25     8    79 1   
    26     9    10 1   
    27     9    80 1   
    28     9    81 1   
    29    10    11 1   
    30    10    82 1   
    31    10    83 1   
    32    11    12 1   
    33    11    84 1   
    34    11    85 1   
    35    12    13 1   
    36    12    86 1   
    37    12    87 1   
    38    13    14 1   
    39    13    88 1   
    40    13    89 1   
    41    14    15 1   
    42    14    90 1   
    43    14    91 1   
    44    15    16 1   
    45    15    92 1   
    46    15    93 1   
    47    16    17 1   
    48    16    94 1   
    49    16    95 1   
    50    17    18 1   
    51    17    96 1   
    52    17    97 1   
    53    18    19 1   
    54    18    98 1   
    55    18    99 1   
    56    19    20 1   
    57    19   100 1   
    58    19   101 1   
    59    20    21 1   
    60    20   102 1   
    61    20   103 1   
    62    21    22 1   
    63    21   104 1   
    64    21   105 1   
    65    22    23 1   
    66    22   106 1   
    67    22   107 1   
    68    23    24 1   
    69    23    25 1   
    70    23   108 1   
    71    24   109 1   
    72    25    26 2   
    73    25    27 1   
    74    27    28 1   
    75    27   110 1   
    76    28    29 1   
    77    28    46 1   
    78    28   111 1   
    79    29    30 1   
    80    29   112 1   
    81    29   113 1   
    82    30    31 1   
    83    31    32 1   
    84    31    34 1   
    85    31   114 1   
    86    32    33 1   
    87    32    40 1   
    88    32   115 1   
    89    33   116 1   
    90    34    35 1   
    91    35    36 1   
    92    35    38 1   
    93    35   117 1   
    94    36    37 1   
    95    36   118 1   
    96    36   119 1   
    97    37   120 1   
    98    38    39 1   
    99    38    40 1   
   100    38   121 1   
   101    39   122 1   
   102    40    41 1   
   103    40   123 1   
   104    41    42 1   
   105    42    43 1   
   106    42    44 1   
   107    42    45 1   
   108    46    47 1   
   109    46    48 1   
   110    46   124 1   
   111    47   125 1   
   112    48    49 2   
   113    48   126 1   
   114    49    50 1   
   115    49   127 1   
   116    50    51 1   
   117    50   128 1   
   118    50   129 1   
   119    51    52 1   
   120    51   130 1   
   121    51   131 1   
   122    52    53 1   
   123    52   132 1   
   124    52   133 1   
   125    53    54 1   
   126    53   134 1   
   127    53   135 1   
   128    54    55 1   
   129    54   136 1   
   130    54   137 1   
   131    55    56 1   
   132    55   138 1   
   133    55   139 1   
   134    56    57 1   
   135    56   140 1   
   136    56   141 1   
   137    57    58 1   
   138    57   142 1   
   139    57   143 1   
   140    58    59 1   
   141    58   144 1   
   142    58   145 1   
   143    59    60 1   
   144    59   146 1   
   145    59   147 1   
   146    60    61 1   
   147    60   148 1   
   148    60   149 1   
   149    61    62 1   
   150    61   150 1   
   151    61   151 1   
   152    62   152 1   
   153    62   153 1   
   154    62   154 1   
@<TRIPOS>SUBSTRUCTURE
     1 SFT         1 TEMP              0 ****  ****    0 ROOT
