@<TRIPOS>MOLECULE
SFT
  154   154     1     0     0
SMALL
No Charge or Current Charge


@<TRIPOS>ATOM
      1 C42         25.0740    -4.0380    -1.0500 c3         1 SFT      -0.088100
      2 C32         23.8990    -3.0430    -0.9930 c3         1 SFT      -0.075400
      3 C22         22.5290    -3.7340    -0.8150 c3         1 SFT      -0.075400
      4 CCA         21.3510    -2.7360    -0.7620 c3         1 SFT      -0.074400
      5 C02         19.9810    -3.4250    -0.5770 c3         1 SFT      -0.074400
      6 C91         18.8050    -2.4260    -0.5280 c3         1 SFT      -0.074400
      7 C81         17.4340    -3.1110    -0.3330 c3         1 SFT      -0.074400
      8 C71         16.2610    -2.1070    -0.2900 c3         1 SFT      -0.074400
      9 C61         14.8880    -2.7830    -0.0790 c3         1 SFT      -0.074400
     10 C51         13.7220    -1.7710    -0.0410 c3         1 SFT      -0.074400
     11 C41         12.3450    -2.4310     0.1940 c3         1 SFT      -0.074400
     12 C31         11.1900    -1.4060     0.2330 c3         1 SFT      -0.074400
     13 C21          9.8100    -2.0480     0.4980 c3         1 SFT      -0.074400
     14 CBA          8.6670    -1.0100     0.5430 c3         1 SFT      -0.075400
     15 C01          7.2860    -1.6310     0.8460 c3         1 SFT      -0.072400
     16 C9           6.1570    -0.5780     0.9010 c3         1 SFT      -0.077400
     17 C8           4.7770    -1.1770     1.2470 c3         1 SFT      -0.066400
     18 C7           3.6640    -0.1080     1.3160 c3         1 SFT      -0.084400
     19 C6           2.2850    -0.6840     1.7050 c3         1 SFT      -0.061400
     20 C5           1.1920     0.4030     1.7950 c3         1 SFT      -0.081400
     21 C4          -0.1900    -0.1490     2.2110 c3         1 SFT      -0.060400
     22 C3          -1.2590     0.9640     2.3120 c3         1 SFT      -0.107400
     23 C2          -2.6840     0.4700     2.6720 c3         1 SFT       0.098300
     24 O2          -2.6650    -0.1300     3.9900 oh         1 SFT      -0.651000
     25 C1          -3.7120     1.6450     2.5930 c          1 SFT       0.565100
     26 O1          -3.8560     2.4530     3.5030 o          1 SFT      -0.632100
     27 N1          -4.4800     1.6960     1.4470 ns         1 SFT      -0.499900
     28 C28         -5.4980     2.7280     1.1590 c3         1 SFT       0.051700
     29 C29         -4.8790     4.1180     0.8070 c3         1 SFT       0.157600
     30 O8          -4.1360     4.0410    -0.4310 os         1 SFT      -0.443000
     31 C1B         -2.7380     3.7030    -0.3390 c6         1 SFT       0.360300
     32 C2B         -2.1480     3.3010    -1.7330 c6         1 SFT       0.137300
     33 O2B         -2.8630     2.1810    -2.3300 oh         1 SFT      -0.714000
     34 O5          -2.0290     4.8390     0.1880 os         1 SFT      -0.462000
     35 C5B         -0.6260     4.5720     0.4330 c6         1 SFT       0.143300
     36 C6B          0.0100     5.8070     1.1540 c3         1 SFT       0.164600
     37 O6          -0.6140     6.1120     2.4160 oh         1 SFT      -0.712000
     38 C4B          0.1030     4.2110    -0.9010 c6         1 SFT       0.113300
     39 O4           0.1680     5.3200    -1.8260 oh         1 SFT      -0.685000
     40 C3B         -0.6120     3.0020    -1.5820 c6         1 SFT       0.242300
     41 O3          -0.0140     2.8020    -2.8830 os         1 SFT      -0.569700
     42 S            0.3450     1.2720    -3.3360 s6         1 SFT       1.494300
     43 O3S          0.9010     1.4220    -4.6870 o          1 SFT      -0.706200
     44 O1S         -0.9620     0.6060    -3.2800 o          1 SFT      -0.706200
     45 O2S          1.3030     0.8160    -2.3230 o          1 SFT      -0.706200
     46 C27         -6.5120     2.2390     0.0840 c3         1 SFT       0.197500
     47 O7          -7.6170     3.1400    -0.0030 oh         1 SFT      -0.640000
     48 C26         -7.0840     0.8730     0.3950 c2         1 SFT      -0.252200
     49 C25         -7.3890    -0.0690    -0.5130 c2         1 SFT      -0.214200
     50 C24         -7.9710    -1.4300    -0.1920 c3         1 SFT      -0.042200
     51 C23         -9.4330    -1.5580    -0.6650 c3         1 SFT      -0.073400
     52 C20        -10.0650    -2.9270    -0.3300 c3         1 SFT      -0.074400
     53 C19        -11.5360    -3.0410    -0.7890 c3         1 SFT      -0.074400
     54 C10        -12.1770    -4.4030    -0.4420 c3         1 SFT      -0.074400
     55 C11        -13.6510    -4.5070    -0.8930 c3         1 SFT      -0.074400
     56 C12        -14.2980    -5.8650    -0.5420 c3         1 SFT      -0.074400
     57 C13        -15.7740    -5.9630    -0.9860 c3         1 SFT      -0.074400
     58 C14        -16.4230    -7.3200    -0.6350 c3         1 SFT      -0.074400
     59 C15        -17.9010    -7.4140    -1.0750 c3         1 SFT      -0.074400
     60 C16        -18.5520    -8.7700    -0.7240 c3         1 SFT      -0.075400
     61 C17        -20.0290    -8.8640    -1.1660 c3         1 SFT      -0.075400
     62 C18        -20.6800   -10.2160    -0.8150 c3         1 SFT      -0.088100
     63 H2'1        25.1310    -4.6260    -0.1260 hc         1 SFT       0.030367
     64 H2'2        24.9570    -4.7290    -1.8940 hc         1 SFT       0.030367
     65 H2'3        26.0220    -3.5020    -1.1740 hc         1 SFT       0.030367
     66 H2A1        24.0640    -2.3440    -0.1630 hc         1 SFT       0.036200
     67 H2A2        23.8890    -2.4490    -1.9160 hc         1 SFT       0.036200
     68 H2B1        22.3690    -4.4360    -1.6440 hc         1 SFT       0.036700
     69 H2B2        22.5410    -4.3270     0.1090 hc         1 SFT       0.036700
     70 H2C1        21.5130    -2.0310     0.0640 hc         1 SFT       0.036700
     71 H2C2        21.3360    -2.1470    -1.6870 hc         1 SFT       0.036700
     72 H2D1        19.8190    -4.1330    -1.4000 hc         1 SFT       0.036700
     73 H2D2        19.9950    -4.0110     0.3510 hc         1 SFT       0.036700
     74 H1'1        18.9710    -1.7140     0.2900 hc         1 SFT       0.037200
     75 H1'2        18.7880    -1.8450    -1.4600 hc         1 SFT       0.037200
     76 H1A1        17.2680    -3.8260    -1.1490 hc         1 SFT       0.036200
     77 H1A2        17.4500    -3.6870     0.6010 hc         1 SFT       0.036200
     78 H1B1        16.4340    -1.3860     0.5180 hc         1 SFT       0.037200
     79 H1B2        16.2410    -1.5380    -1.2280 hc         1 SFT       0.037200
     80 H1C1        14.7120    -3.5060    -0.8860 hc         1 SFT       0.035700
     81 H1C2        14.9060    -3.3490     0.8610 hc         1 SFT       0.035700
     82 H1D1        13.9090    -1.0390     0.7560 hc         1 SFT       0.037200
     83 H1D2        13.6980    -1.2140    -0.9860 hc         1 SFT       0.037200
     84 H1E1        12.1530    -3.1610    -0.6030 hc         1 SFT       0.035200
     85 H1E2        12.3680    -2.9850     1.1400 hc         1 SFT       0.035200
     86 H1F1        11.3950    -0.6640     1.0150 hc         1 SFT       0.038200
     87 H1F2        11.1580    -0.8640    -0.7210 hc         1 SFT       0.038200
     88 H1G1         9.5970    -2.7870    -0.2850 hc         1 SFT       0.033700
     89 H1G2         9.8420    -2.5910     1.4520 hc         1 SFT       0.033700
     90 H1H1         8.8970    -0.2580     1.3080 hc         1 SFT       0.039700
     91 H1H2         8.6220    -0.4830    -0.4190 hc         1 SFT       0.039700
     92 H1I1         7.0470    -2.3780     0.0780 hc         1 SFT       0.030700
     93 H1I2         7.3320    -2.1610     1.8060 hc         1 SFT       0.030700
     94 H9'1         6.4140     0.1830     1.6490 hc         1 SFT       0.045700
     95 H9'2         6.0950    -0.0650    -0.0680 hc         1 SFT       0.045700
     96 H8'1         4.5090    -1.9310     0.4950 hc         1 SFT       0.026200
     97 H8'2         4.8400    -1.6950     2.2130 hc         1 SFT       0.026200
     98 H7'1         3.9500     0.6590     2.0470 hc         1 SFT       0.057200
     99 H7'2         3.5840     0.3930     0.3430 hc         1 SFT       0.057200
    100 H6'1         1.9850    -1.4390     0.9660 hc         1 SFT       0.028200
    101 H6'2         2.3660    -1.1950     2.6730 hc         1 SFT       0.028200
    102 H5'1         1.5050     1.1670     2.5190 hc         1 SFT       0.049200
    103 H5'2         1.1030     0.9040     0.8220 hc         1 SFT       0.049200
    104 H4'1        -0.5150    -0.9000     1.4800 hc         1 SFT       0.042200
    105 H4'2        -0.0970    -0.6590     3.1780 hc         1 SFT       0.042200
    106 H3'1        -0.9370     1.7150     3.0460 hc         1 SFT       0.051200
    107 H3'2        -1.3060     1.4720     1.3430 hc         1 SFT       0.051200
    108 H2          -2.9870    -0.2790     1.9280 h1         1 SFT       0.082700
    109 HA          -2.7600     0.6100     4.6340 ho         1 SFT       0.461000
    110 H1          -4.3300     0.9670     0.7580 hn         1 SFT       0.343500
    111 H19         -6.0710     2.8700     2.0860 h1         1 SFT       0.076700
    112 HA1         -5.6940     4.8460     0.7050 h1         1 SFT       0.058700
    113 HB2         -4.2420     4.4640     1.6320 h1         1 SFT       0.058700
    114 H20         -2.6140     2.8560     0.3440 h2         1 SFT       0.021700
    115 H2B         -2.2490     4.1810    -2.3850 h1         1 SFT       0.084700
    116 HB          -2.1750     1.5860    -2.7500 ho         1 SFT       0.504000
    117 H5          -0.5480     3.7180     1.1210 h1         1 SFT       0.047700
    118 H6A1         1.0780     5.6000     1.3070 h1         1 SFT       0.027700
    119 H6A2        -0.0590     6.6750     0.4840 h1         1 SFT       0.027700
    120 H6          -0.2160     6.9540     2.7370 ho         1 SFT       0.493000
    121 H4           1.1240     3.8860    -0.6470 h1         1 SFT       0.075700
    122 HC           0.3260     4.9030    -2.7080 ho         1 SFT       0.489000
    123 H3          -0.4710     2.1140    -0.9470 h1         1 SFT       0.046700
    124 H23         -5.9860     2.1890    -0.8820 h1         1 SFT       0.093700
    125 HD          -8.3150     2.6630    -0.5010 ho         1 SFT       0.435000
    126 H22         -7.2550     0.6920     1.4580 ha         1 SFT       0.182000
    127 H21         -7.2220     0.1100    -1.5780 ha         1 SFT       0.169000
    128 H6C1        -7.3650    -2.2130    -0.6650 hc         1 SFT       0.045200
    129 H6C2        -7.9300    -1.6150     0.8880 hc         1 SFT       0.045200
    130 H7C1       -10.0290    -0.7630    -0.1990 hc         1 SFT       0.040200
    131 H7C2        -9.4760    -1.3960    -1.7500 hc         1 SFT       0.040200
    132 H8C1        -9.4760    -3.7230    -0.8050 hc         1 SFT       0.037200
    133 H8C2       -10.0120    -3.0920     0.7540 hc         1 SFT       0.037200
    134 H9C1       -12.1210    -2.2390    -0.3200 hc         1 SFT       0.037200
    135 H9C2       -11.5880    -2.8830    -1.8730 hc         1 SFT       0.037200
    136 H101       -11.5970    -5.2050    -0.9140 hc         1 SFT       0.037200
    137 H102       -12.1200    -4.5610     0.6430 hc         1 SFT       0.037200
    138 H111       -14.2280    -3.7010    -0.4230 hc         1 SFT       0.037200
    139 H112       -13.7070    -4.3510    -1.9770 hc         1 SFT       0.037200
    140 H121       -13.7240    -6.6710    -1.0160 hc         1 SFT       0.036700
    141 H122       -14.2370    -6.0230     0.5430 hc         1 SFT       0.036700
    142 H131       -16.3470    -5.1560    -0.5110 hc         1 SFT       0.036700
    143 H132       -15.8350    -5.8050    -2.0700 hc         1 SFT       0.036700
    144 H141       -15.8530    -8.1270    -1.1120 hc         1 SFT       0.037200
    145 H142       -16.3590    -7.4800     0.4490 hc         1 SFT       0.037200
    146 H151       -18.4720    -6.6070    -0.5970 hc         1 SFT       0.036200
    147 H152       -17.9650    -7.2540    -2.1580 hc         1 SFT       0.036200
    148 H161       -17.9820    -9.5780    -1.2000 hc         1 SFT       0.037200
    149 H162       -18.4900    -8.9300     0.3600 hc         1 SFT       0.037200
    150 H171       -20.6030    -8.0590    -0.6910 hc         1 SFT       0.036200
    151 H172       -20.0950    -8.7080    -2.2500 hc         1 SFT       0.036200
    152 H181       -21.7240   -10.2360    -1.1500 hc         1 SFT       0.030367
    153 H182       -20.1470   -11.0420    -1.3040 hc         1 SFT       0.030367
    154 H183       -20.6630   -10.3860     0.2680 hc         1 SFT       0.030367
@<TRIPOS>BOND
     1     1     2 1   
     2     1    63 1   
     3     1    64 1   
     4     1    65 1   
     5     2     3 1   
     6     2    66 1   
     7     2    67 1   
     8     3     4 1   
     9     3    68 1   
    10     3    69 1   
    11     4     5 1   
    12     4    70 1   
    13     4    71 1   
    14     5     6 1   
    15     5    72 1   
    16     5    73 1   
    17     6     7 1   
    18     6    74 1   
    19     6    75 1   
    20     7     8 1   
    21     7    76 1   
    22     7    77 1   
    23     8     9 1   
    24     8    78 1   
    25     8    79 1   
    26     9    10 1   
    27     9    80 1   
    28     9    81 1   
    29    10    11 1   
    30    10    82 1   
    31    10    83 1   
    32    11    12 1   
    33    11    84 1   
    34    11    85 1   
    35    12    13 1   
    36    12    86 1   
    37    12    87 1   
    38    13    14 1   
    39    13    88 1   
    40    13    89 1   
    41    14    15 1   
    42    14    90 1   
    43    14    91 1   
    44    15    16 1   
    45    15    92 1   
    46    15    93 1   
    47    16    17 1   
    48    16    94 1   
    49    16    95 1   
    50    17    18 1   
    51    17    96 1   
    52    17    97 1   
    53    18    19 1   
    54    18    98 1   
    55    18    99 1   
    56    19    20 1   
    57    19   100 1   
    58    19   101 1   
    59    20    21 1   
    60    20   102 1   
    61    20   103 1   
    62    21    22 1   
    63    21   104 1   
    64    21   105 1   
    65    22    23 1   
    66    22   106 1   
    67    22   107 1   
    68    23    24 1   
    69    23    25 1   
    70    23   108 1   
    71    24   109 1   
    72    25    26 2   
    73    25    27 1   
    74    27    28 1   
    75    27   110 1   
    76    28    29 1   
    77    28    46 1   
    78    28   111 1   
    79    29    30 1   
    80    29   112 1   
    81    29   113 1   
    82    30    31 1   
    83    31    32 1   
    84    31    34 1   
    85    31   114 1   
    86    32    33 1   
    87    32    40 1   
    88    32   115 1   
    89    33   116 1   
    90    34    35 1   
    91    35    36 1   
    92    35    38 1   
    93    35   117 1   
    94    36    37 1   
    95    36   118 1   
    96    36   119 1   
    97    37   120 1   
    98    38    39 1   
    99    38    40 1   
   100    38   121 1   
   101    39   122 1   
   102    40    41 1   
   103    40   123 1   
   104    41    42 1   
   105    42    43 1   
   106    42    44 1   
   107    42    45 1   
   108    46    47 1   
   109    46    48 1   
   110    46   124 1   
   111    47   125 1   
   112    48    49 2   
   113    48   126 1   
   114    49    50 1   
   115    49   127 1   
   116    50    51 1   
   117    50   128 1   
   118    50   129 1   
   119    51    52 1   
   120    51   130 1   
   121    51   131 1   
   122    52    53 1   
   123    52   132 1   
   124    52   133 1   
   125    53    54 1   
   126    53   134 1   
   127    53   135 1   
   128    54    55 1   
   129    54   136 1   
   130    54   137 1   
   131    55    56 1   
   132    55   138 1   
   133    55   139 1   
   134    56    57 1   
   135    56   140 1   
   136    56   141 1   
   137    57    58 1   
   138    57   142 1   
   139    57   143 1   
   140    58    59 1   
   141    58   144 1   
   142    58   145 1   
   143    59    60 1   
   144    59   146 1   
   145    59   147 1   
   146    60    61 1   
   147    60   148 1   
   148    60   149 1   
   149    61    62 1   
   150    61   150 1   
   151    61   151 1   
   152    62   152 1   
   153    62   153 1   
   154    62   154 1   
@<TRIPOS>SUBSTRUCTURE
     1 SFT         1 TEMP              0 ****  ****    0 ROOT
