@<TRIPOS>MOLECULE
SFU
   26    26     1     0     0
SMALL
bcc


@<TRIPOS>ATOM
      1 C1          -0.3330     0.1240     0.0870 c6         1 SFU       0.300200
      2 C2           0.3210    -1.2400     0.2200 c6         1 SFU       0.087100
      3 C3           1.8350    -1.0720     0.4550 c6         1 SFU       0.120100
      4 C4           2.4140    -0.1320    -0.5890 c6         1 SFU       0.132100
      5 C5           1.6410     1.1940    -0.7020 c6         1 SFU       0.114100
      6 C6           1.8590     2.2030     0.4150 c3         1 SFU      -0.110100
      7 O2           0.0540    -1.9620    -0.9570 oh         1 SFU      -0.565800
      8 O3           2.0910    -0.5620     1.7400 oh         1 SFU      -0.573800
      9 O4           3.7780     0.0650    -0.3140 oh         1 SFU      -0.576800
     10 O5           0.2620     0.9030    -0.9160 os         1 SFU      -0.384600
     11 SE          -2.2160    -0.1010    -0.3770 ss         1 SFU      -0.388200
     12 H1          -0.3010     0.6260     1.0630 h2         1 SFU       0.064700
     13 H2          -0.1090    -1.7420     1.0990 h1         1 SFU       0.044700
     14 H3           2.3090    -2.0580     0.3310 h1         1 SFU       0.041700
     15 HA           0.3370    -2.8730    -0.8290 ho         1 SFU       0.402000
     16 H4           2.2850    -0.6450    -1.5520 h1         1 SFU       0.053700
     17 HB           1.7830    -1.2040     2.3880 ho         1 SFU       0.401000
     18 H5           1.9600     1.6670    -1.6360 h1         1 SFU       0.066700
     19 HC           4.1840     0.4760    -1.0840 ho         1 SFU       0.404000
     20 H61C         2.9210     2.4230     0.5220 hc         1 SFU       0.047367
     21 H62C         1.3550     3.1380     0.1650 hc         1 SFU       0.047367
     22 H63C         1.4940     1.8670     1.3820 hc         1 SFU       0.047367
     23 HM1         -2.6210     1.8000     1.2780 h1         1 SFU       0.057367
     24 HM2         -2.2720     2.4470    -0.3420 h1         1 SFU       0.057367
     25 HM3         -3.8630     1.7570     0.0170 h1         1 SFU       0.057367
     26 CM          -2.7950     1.6690     0.2110 c3         1 SFU       0.051000
@<TRIPOS>BOND
     1     1     2 1   
     2     1    10 1   
     3     1    11 1   
     4     1    12 1   
     5     2     3 1   
     6     2     7 1   
     7     2    13 1   
     8     3     4 1   
     9     3     8 1   
    10     3    14 1   
    11     4     5 1   
    12     4     9 1   
    13     4    16 1   
    14     5     6 1   
    15     5    10 1   
    16     5    18 1   
    17     6    20 1   
    18     6    21 1   
    19     6    22 1   
    20     7    15 1   
    21     8    17 1   
    22     9    19 1   
    23    11    26 1   
    24    23    26 1   
    25    24    26 1   
    26    25    26 1   
@<TRIPOS>SUBSTRUCTURE
     1 SFU         1 TEMP              0 ****  ****    0 ROOT
