@<TRIPOS>MOLECULE
SFU
   26    26     1     0     0
SMALL
No Charge or Current Charge


@<TRIPOS>ATOM
      1 C1          -0.4000     0.0100     0.2380 c6         1 SFU       0.371300
      2 C2           0.2780    -1.4000     0.2700 c6         1 SFU       0.110300
      3 C3           1.8040    -1.2270     0.5400 c6         1 SFU       0.143300
      4 C4           2.4390    -0.2220    -0.4800 c6         1 SFU       0.155300
      5 C5           1.6060     1.1070    -0.6180 c6         1 SFU       0.137300
      6 C6           1.7470     2.1400     0.5430 c3         1 SFU      -0.110100
      7 O2           0.0610    -2.1080    -0.9760 oh         1 SFU      -0.688000
      8 O3           2.0480    -0.7840     1.8840 oh         1 SFU      -0.636000
      9 O4           3.8170     0.0370    -0.1280 oh         1 SFU      -0.699000
     10 O5           0.2000     0.8110    -0.8060 os         1 SFU      -0.431000
     11 SE          -2.2070    -0.1060    -0.1390 ss         1 SFU      -0.484000
     12 H1          -0.3030     0.5040     1.2160 h2         1 SFU       0.064700
     13 H2          -0.1620    -1.9750     1.0990 h1         1 SFU       0.044700
     14 H3           2.2880    -2.2040     0.3960 h1         1 SFU       0.041700
     15 HA          -0.8220    -1.8120    -1.3000 ho         1 SFU       0.501000
     16 H4           2.4080    -0.7140    -1.4640 h1         1 SFU       0.053700
     17 HB           2.9520    -0.3940     1.8470 ho         1 SFU       0.440000
     18 H5           1.9490     1.6160    -1.5310 h1         1 SFU       0.066700
     19 HC           4.2560     0.4140    -0.9260 ho         1 SFU       0.503000
     20 H61C         2.7780     2.5040     0.6180 hc         1 SFU       0.047367
     21 H62C         1.1110     3.0140     0.3610 hc         1 SFU       0.047367
     22 H63C         1.4730     1.7320     1.5210 hc         1 SFU       0.047367
     23 HM1         -2.4220     2.0780     0.9570 h1         1 SFU       0.057367
     24 HM2         -2.1160     2.2570    -0.7960 h1         1 SFU       0.057367
     25 HM3         -3.7430     1.8020    -0.2140 h1         1 SFU       0.057367
     26 CM          -2.6670     1.6850    -0.0380 c3         1 SFU       0.098900
@<TRIPOS>BOND
     1     1     2 1   
     2     1    10 1   
     3     1    11 1   
     4     1    12 1   
     5     2     3 1   
     6     2     7 1   
     7     2    13 1   
     8     3     4 1   
     9     3     8 1   
    10     3    14 1   
    11     4     5 1   
    12     4     9 1   
    13     4    16 1   
    14     5     6 1   
    15     5    10 1   
    16     5    18 1   
    17     6    20 1   
    18     6    21 1   
    19     6    22 1   
    20     7    15 1   
    21     8    17 1   
    22     9    19 1   
    23    11    26 1   
    24    23    26 1   
    25    24    26 1   
    26    25    26 1   
@<TRIPOS>SUBSTRUCTURE
     1 SFU         1 TEMP              0 ****  ****    0 ROOT
