@<TRIPOS>MOLECULE
SFW
   35    37     1     0     0
SMALL
bcc


@<TRIPOS>ATOM
      1 C01         21.1740    20.9030    -4.1510 c3         1 SFW      -0.051800
      2 C02         22.0400    21.1890    -2.9610 ca         1 SFW      -0.070300
      3 C03         23.1830    21.9730    -3.0770 ca         1 SFW      -0.099000
      4 C04         23.9900    22.2150    -1.9790 ca         1 SFW      -0.127000
      5 C05         23.6750    21.6770    -0.7420 ca         1 SFW       0.037800
      6 C07         24.3900    22.8020     1.3970 cc         1 SFW       0.479000
      7 C08         23.2490    23.6950     1.6170 ca         1 SFW      -0.121500
      8 C09         22.5090    24.2610     0.5790 ca         1 SFW      -0.099000
      9 C10         21.4410    25.1030     0.8570 ca         1 SFW      -0.133500
     10 C11         21.1020    25.4000     2.1680 ca         1 SFW      -0.117000
     11 C12         21.8460    24.8550     3.2070 ca         1 SFW      -0.133500
     12 C13         22.9090    24.0110     2.9340 ca         1 SFW      -0.099000
     13 C15         26.2670    21.8050     1.6730 cd         1 SFW       0.306200
     14 C16         25.7500    21.3070     0.5160 cc         1 SFW      -0.244600
     15 C17         22.5460    20.8690    -0.6070 ca         1 SFW      -0.179300
     16 C18         22.1900    20.2340     0.7080 c3         1 SFW       0.725200
     17 C22         21.7380    20.6470    -1.7150 ca         1 SFW      -0.081000
     18 F19         23.2330    19.6090     1.2660 f          1 SFW      -0.227633
     19 F20         21.2230    19.3220     0.5730 f          1 SFW      -0.227633
     20 F21         21.7510    21.1300     1.6010 f          1 SFW      -0.227633
     21 N06         24.5470    21.9430     0.3460 na         1 SFW      -0.141000
     22 N14         25.4180    22.7260     2.2070 nd         1 SFW      -0.665000
     23 H1          21.5520    20.0380    -4.6990 hc         1 SFW       0.050700
     24 H2          20.1490    20.6820    -3.8580 hc         1 SFW       0.050700
     25 H3          21.1600    21.7440    -4.8420 hc         1 SFW       0.050700
     26 H4          23.4450    22.4060    -4.0340 ha         1 SFW       0.143000
     27 H5          24.8700    22.8380    -2.0740 ha         1 SFW       0.155000
     28 H6          22.7650    24.0710    -0.4540 ha         1 SFW       0.140500
     29 H7          20.8770    25.5320     0.0390 ha         1 SFW       0.131500
     30 H8          20.2660    26.0550     2.3810 ha         1 SFW       0.130000
     31 H9          21.5940    25.0820     4.2350 ha         1 SFW       0.131500
     32 H10         23.4780    23.5810     3.7480 ha         1 SFW       0.140500
     33 H11         27.2040    21.5510     2.1430 h4         1 SFW       0.041100
     34 H12         26.1060    20.5690    -0.1830 h4         1 SFW       0.179000
     35 H13         20.8520    20.0320    -1.6250 ha         1 SFW       0.155000
@<TRIPOS>BOND
     1     1     2 1   
     2     1    23 1   
     3     1    24 1   
     4     1    25 1   
     5     2     3 ar  
     6     2    17 ar  
     7     3     4 ar  
     8     3    26 1   
     9     4     5 ar  
    10     4    27 1   
    11     5    15 ar  
    12     5    21 1   
    13     6     7 1   
    14     6    21 1   
    15     6    22 2   
    16     7     8 ar  
    17     7    12 ar  
    18     8     9 ar  
    19     8    28 1   
    20     9    10 ar  
    21     9    29 1   
    22    10    11 ar  
    23    10    30 1   
    24    11    12 ar  
    25    11    31 1   
    26    12    32 1   
    27    13    14 2   
    28    13    22 1   
    29    13    33 1   
    30    14    21 1   
    31    14    34 1   
    32    15    16 1   
    33    15    17 ar  
    34    16    18 1   
    35    16    19 1   
    36    16    20 1   
    37    17    35 1   
@<TRIPOS>SUBSTRUCTURE
     1 SFW         1 TEMP              0 ****  ****    0 ROOT
