@<TRIPOS>MOLECULE
SFW
   35    37     1     0     0
SMALL
No Charge or Current Charge


@<TRIPOS>ATOM
      1 C01         21.1180    20.9960    -4.1280 c3         1 SFW      -0.051800
      2 C02         22.0420    21.2260    -2.9410 ca         1 SFW      -0.070300
      3 C03         23.2040    21.9990    -3.0880 ca         1 SFW      -0.081000
      4 C04         24.0480    22.2110    -1.9890 ca         1 SFW      -0.109000
      5 C05         23.7430    21.6630    -0.7290 ca         1 SFW       0.037800
      6 C07         24.3870    22.7770     1.3960 cc         1 SFW       0.479000
      7 C08         23.2220    23.6590     1.6170 ca         1 SFW      -0.121500
      8 C09         22.4850    24.2220     0.5470 ca         1 SFW      -0.081000
      9 C10         21.4020    25.0820     0.7950 ca         1 SFW      -0.115500
     10 C11         21.0480    25.4120     2.1120 ca         1 SFW      -0.099000
     11 C12         21.7890    24.8900     3.1820 ca         1 SFW      -0.115500
     12 C13         22.8730    24.0300     2.9360 ca         1 SFW      -0.081000
     13 C15         26.2910    21.7600     1.6760 cd         1 SFW       0.240900
     14 C16         25.8210    21.2930     0.4750 cc         1 SFW      -0.212000
     15 C17         22.5890    20.8450    -0.5720 ca         1 SFW      -0.179300
     16 C18         22.2370    20.1640     0.7680 c3         1 SFW       0.361300
     17 C22         21.7440    20.6520    -1.6920 ca         1 SFW      -0.063000
     18 F19         23.3070    19.5720     1.3470 f          1 SFW      -0.106333
     19 F20         21.3060    19.1920     0.6310 f          1 SFW      -0.106333
     20 F21         21.7380    21.0450     1.6620 f          1 SFW      -0.106333
     21 N06         24.6200    21.9360     0.3210 na         1 SFW      -0.090300
     22 N14         25.4070    22.6660     2.2430 nd         1 SFW      -0.665000
     23 H1          21.3450    20.0420    -4.6190 hc         1 SFW       0.050700
     24 H2          20.0670    20.9700    -3.8160 hc         1 SFW       0.050700
     25 H3          21.2180    21.7900    -4.8770 hc         1 SFW       0.050700
     26 H4          23.4520    22.4380    -4.0520 ha         1 SFW       0.125000
     27 H5          24.9410    22.8200    -2.1140 ha         1 SFW       0.137000
     28 H6          22.7490    24.0160    -0.4850 ha         1 SFW       0.122500
     29 H7          20.8410    25.5010    -0.0370 ha         1 SFW       0.113500
     30 H8          20.2100    26.0800     2.3020 ha         1 SFW       0.112000
     31 H9          21.5260    25.1530     4.2050 ha         1 SFW       0.113500
     32 H10         23.4350    23.6370     3.7810 ha         1 SFW       0.122500
     33 H11         27.2160    21.4900     2.1710 h4         1 SFW       0.041100
     34 H12         26.2250    20.5790    -0.2300 h4         1 SFW       0.161000
     35 H13         20.8430    20.0470    -1.6040 ha         1 SFW       0.137000
@<TRIPOS>BOND
     1     1     2 1   
     2     1    23 1   
     3     1    24 1   
     4     1    25 1   
     5     2     3 ar  
     6     2    17 ar  
     7     3     4 ar  
     8     3    26 1   
     9     4     5 ar  
    10     4    27 1   
    11     5    15 ar  
    12     5    21 1   
    13     6     7 1   
    14     6    21 1   
    15     6    22 2   
    16     7     8 ar  
    17     7    12 ar  
    18     8     9 ar  
    19     8    28 1   
    20     9    10 ar  
    21     9    29 1   
    22    10    11 ar  
    23    10    30 1   
    24    11    12 ar  
    25    11    31 1   
    26    12    32 1   
    27    13    14 2   
    28    13    22 1   
    29    13    33 1   
    30    14    21 1   
    31    14    34 1   
    32    15    16 1   
    33    15    17 ar  
    34    16    18 1   
    35    16    19 1   
    36    16    20 1   
    37    17    35 1   
@<TRIPOS>SUBSTRUCTURE
     1 SFW         1 TEMP              0 ****  ****    0 ROOT
