@<TRIPOS>MOLECULE
SFX
   40    41     1     0     0
SMALL
abcg2


@<TRIPOS>ATOM
      1 F15         28.6670    24.7190    19.5250 f          1 SFX      -0.115667
      2 C12         27.6340    24.9430    20.3850 c3         1 SFX       0.348300
      3 F13         26.5520    25.1870    19.6080 f          1 SFX      -0.115667
      4 F14         27.9260    26.0990    21.0200 f          1 SFX      -0.115667
      5 C9          27.4210    23.8040    21.3280 ca         1 SFX      -0.236300
      6 C8          28.0120    23.8170    22.5920 ca         1 SFX      -0.022500
      7 C7          27.8500    22.7400    23.4430 ca         1 SFX      -0.177500
      8 C6          27.1000    21.6300    23.0420 ca         1 SFX       0.174100
      9 C11         26.5050    21.6150    21.7780 ca         1 SFX      -0.177500
     10 C10         26.6740    22.7010    20.9290 ca         1 SFX      -0.022500
     11 O5          27.0150    20.6270    23.9470 os         1 SFX      -0.351100
     12 C3          26.2900    19.4250    23.6240 c3         1 SFX       0.222600
     13 C2          26.7300    18.3780    24.6400 c3         1 SFX      -0.071400
     14 C1          28.2170    18.0450    24.5410 c3         1 SFX       0.161800
     15 N4          28.6100    17.0100    25.4970 n7         1 SFX      -0.865400
     16 C22         28.2320    15.6600    25.0850 c3         1 SFX       0.142100
     17 C16         24.7950    19.6490    23.6550 ca         1 SFX      -0.126300
     18 C17         23.9670    18.8800    22.8390 ca         1 SFX      -0.093000
     19 C18         22.5850    19.0290    22.8930 ca         1 SFX      -0.109500
     20 C19         22.0180    19.9570    23.7620 ca         1 SFX      -0.101000
     21 C20         22.8410    20.7320    24.5750 ca         1 SFX      -0.109500
     22 C21         24.2220    20.5760    24.5230 ca         1 SFX      -0.093000
     23 H8          28.5960    24.6690    22.9130 ha         1 SFX       0.129500
     24 H7          28.3000    22.7390    24.4270 ha         1 SFX       0.131500
     25 H11         25.9090    20.7780    21.4490 ha         1 SFX       0.131500
     26 H10         26.2100    22.6820    19.9520 ha         1 SFX       0.129500
     27 H3          26.5870    19.0950    22.6240 h1         1 SFX       0.049700
     28 H2          26.4940    18.7360    25.6450 hc         1 SFX       0.065700
     29 H2A         26.1280    17.4850    24.4640 hc         1 SFX       0.065700
     30 H1          28.4450    17.7480    23.5030 h1         1 SFX       0.034700
     31 H1A         28.8010    18.9400    24.7550 h1         1 SFX       0.034700
     32 H22         28.5640    15.4140    24.0650 h1         1 SFX       0.030033
     33 H22A        28.6680    14.9360    25.7740 h1         1 SFX       0.030033
     34 H17         24.4090    18.1640    22.1550 ha         1 SFX       0.118000
     35 H18         21.9530    18.4260    22.2530 ha         1 SFX       0.116000
     36 H19         20.9430    20.0780    23.8020 ha         1 SFX       0.115000
     37 H20         22.4070    21.4580    25.2500 ha         1 SFX       0.116000
     38 H21         24.8590    21.1830    25.1540 ha         1 SFX       0.118000
     39 H171        29.6160    17.0440    25.6100 hn         1 SFX       0.412000
     40 H181        27.1480    15.5420    25.1200 h1         1 SFX       0.030033
@<TRIPOS>BOND
     1     1     2 1   
     2     2     3 1   
     3     2     4 1   
     4     2     5 1   
     5     5     6 ar  
     6     5    10 ar  
     7     6     7 ar  
     8     6    23 1   
     9     7     8 ar  
    10     7    24 1   
    11     8     9 ar  
    12     8    11 1   
    13     9    10 ar  
    14     9    25 1   
    15    10    26 1   
    16    11    12 1   
    17    12    13 1   
    18    12    17 1   
    19    12    27 1   
    20    13    14 1   
    21    13    28 1   
    22    13    29 1   
    23    14    15 1   
    24    14    30 1   
    25    14    31 1   
    26    15    16 1   
    27    15    39 1   
    28    16    32 1   
    29    16    33 1   
    30    16    40 1   
    31    17    18 ar  
    32    17    22 ar  
    33    18    19 ar  
    34    18    34 1   
    35    19    20 ar  
    36    19    35 1   
    37    20    21 ar  
    38    20    36 1   
    39    21    22 ar  
    40    21    37 1   
    41    22    38 1   
@<TRIPOS>SUBSTRUCTURE
     1 SFX         1 TEMP              0 ****  ****    0 ROOT
