@<TRIPOS>MOLECULE
SFX
   40    41     1     0     0
SMALL
No Charge or Current Charge


@<TRIPOS>ATOM
      1 F15         28.4310    25.0930    19.5810 f          1 SFX      -0.115667
      2 C12         27.3290    25.1160    20.3640 c3         1 SFX       0.348300
      3 F13         26.2600    25.2000    19.5400 f          1 SFX      -0.115667
      4 F14         27.3670    26.2720    21.0650 f          1 SFX      -0.115667
      5 C9          27.2680    23.8840    21.2740 ca         1 SFX      -0.236300
      6 C8          27.8600    23.9080    22.5550 ca         1 SFX      -0.022500
      7 C7          27.8090    22.7730    23.3800 ca         1 SFX      -0.177500
      8 C6          27.1730    21.6010    22.9460 ca         1 SFX       0.174100
      9 C11         26.5940    21.5650    21.6610 ca         1 SFX      -0.177500
     10 C10         26.6430    22.6990    20.8320 ca         1 SFX      -0.022500
     11 O5          27.1630    20.5220    23.8080 os         1 SFX      -0.351100
     12 C3          26.4110    19.3180    23.5550 c3         1 SFX       0.222600
     13 C2          26.8170    18.2820    24.6240 c3         1 SFX      -0.071400
     14 C1          28.3010    17.8590    24.5300 c3         1 SFX       0.161800
     15 N4          28.6700    16.8900    25.5880 n7         1 SFX      -0.865400
     16 C22         28.1110    15.5280    25.4510 c3         1 SFX       0.142100
     17 C16         24.9110    19.6260    23.6100 ca         1 SFX      -0.126300
     18 C17         24.0510    19.1230    22.6130 ca         1 SFX      -0.093000
     19 C18         22.6730    19.3990    22.6560 ca         1 SFX      -0.109500
     20 C19         22.1430    20.1790    23.6980 ca         1 SFX      -0.101000
     21 C20         22.9930    20.6810    24.6980 ca         1 SFX      -0.109500
     22 C21         24.3710    20.4050    24.6560 ca         1 SFX      -0.093000
     23 H8          28.3640    24.8040    22.9150 ha         1 SFX       0.129500
     24 H7          28.2650    22.8020    24.3660 ha         1 SFX       0.131500
     25 H11         26.1080    20.6710    21.2860 ha         1 SFX       0.131500
     26 H10         26.1940    22.6490    19.8410 ha         1 SFX       0.129500
     27 H3          26.6680    18.9070    22.5700 h1         1 SFX       0.049700
     28 H2          26.6160    18.6900    25.6220 hc         1 SFX       0.065700
     29 H2A         26.1760    17.4020    24.5030 hc         1 SFX       0.065700
     30 H1          28.4990    17.4380    23.5340 h1         1 SFX       0.034700
     31 H1A         28.9230    18.7590    24.6320 h1         1 SFX       0.034700
     32 H22         28.4000    15.0800    24.4900 h1         1 SFX       0.030033
     33 H22A        28.4840    14.8780    26.2540 h1         1 SFX       0.030033
     34 H17         24.4480    18.5160    21.8020 ha         1 SFX       0.118000
     35 H18         22.0160    19.0090    21.8830 ha         1 SFX       0.116000
     36 H19         21.0770    20.3920    23.7310 ha         1 SFX       0.115000
     37 H20         22.5840    21.2840    25.5060 ha         1 SFX       0.116000
     38 H21         25.0190    20.8000    25.4350 ha         1 SFX       0.118000
     39 H171        29.6960    16.8010    25.5800 hn         1 SFX       0.412000
     40 H181        27.0150    15.5370    25.5110 h1         1 SFX       0.030033
@<TRIPOS>BOND
     1     1     2 1   
     2     2     3 1   
     3     2     4 1   
     4     2     5 1   
     5     5     6 ar  
     6     5    10 ar  
     7     6     7 ar  
     8     6    23 1   
     9     7     8 ar  
    10     7    24 1   
    11     8     9 ar  
    12     8    11 1   
    13     9    10 ar  
    14     9    25 1   
    15    10    26 1   
    16    11    12 1   
    17    12    13 1   
    18    12    17 1   
    19    12    27 1   
    20    13    14 1   
    21    13    28 1   
    22    13    29 1   
    23    14    15 1   
    24    14    30 1   
    25    14    31 1   
    26    15    16 1   
    27    15    39 1   
    28    16    32 1   
    29    16    33 1   
    30    16    40 1   
    31    17    18 ar  
    32    17    22 ar  
    33    18    19 ar  
    34    18    34 1   
    35    19    20 ar  
    36    19    35 1   
    37    20    21 ar  
    38    20    36 1   
    39    21    22 ar  
    40    21    37 1   
    41    22    38 1   
@<TRIPOS>SUBSTRUCTURE
     1 SFX         1 TEMP              0 ****  ****    0 ROOT
