@<TRIPOS>MOLECULE
SFY
   28    29     1     0     0
SMALL
abcg2


@<TRIPOS>ATOM
      1 OAB          0.4630     1.8110    -1.8730 o          1 SFY      -0.535500
      2 SAQ          0.0870     1.7830    -0.4730 sy         1 SFY       1.202600
      3 OAC         -0.3100     3.0220     0.1790 o          1 SFY      -0.535500
      4 CAP         -1.1570     0.5810    -0.2310 ca         1 SFY      -0.370500
      5 CAJ         -1.8770     0.5780     0.9630 ca         1 SFY       0.050500
      6 CAH         -2.8530    -0.3690     1.1780 ca         1 SFY      -0.224000
      7 CAN         -3.1390    -1.3410     0.2010 ca         1 SFY       0.379000
      8 NAA         -4.0700    -2.2990     0.4260 nv         1 SFY      -1.099000
      9 CAI         -2.4080    -1.3150    -1.0000 ca         1 SFY      -0.224000
     10 CAK         -1.4270    -0.3710    -1.2090 ca         1 SFY       0.050500
     11 NAM          1.4010     1.2940     0.4330 nu         1 SFY      -0.880000
     12 CAO          2.0270     0.0620     0.3240 ca         1 SFY       0.616900
     13 CAG          2.9510    -0.3220     1.3000 ca         1 SFY      -0.203000
     14 CAE          3.5650    -1.5490     1.1570 ca         1 SFY      -0.042000
     15 CAD          3.2450    -2.3530     0.0660 ca         1 SFY      -0.200000
     16 CAF          2.3130    -1.8730    -0.8340 ca         1 SFY       0.385900
     17 NAL          1.7160    -0.6910    -0.7150 nb         1 SFY      -0.729000
     18 H1          -1.6840     1.3170     1.7300 ha         1 SFY       0.134000
     19 H2          -3.4090    -0.3630     2.1070 ha         1 SFY       0.115500
     20 H3          -4.7260    -2.1740     1.1770 hn         1 SFY       0.476000
     21 H4          -4.4120    -2.8360    -0.3520 hn         1 SFY       0.476000
     22 H5          -2.6170    -2.0490    -1.7680 ha         1 SFY       0.115500
     23 H6          -0.8700    -0.3790    -2.1350 ha         1 SFY       0.134000
     24 H7           1.5170     1.8070     1.2970 hn         1 SFY       0.511000
     25 H8           3.1760     0.3250     2.1380 ha         1 SFY       0.126000
     26 H9           4.2860    -1.8800     1.8930 ha         1 SFY       0.119000
     27 H10          3.7020    -3.3220    -0.0770 ha         1 SFY       0.128000
     28 H11          2.0270    -2.4640    -1.6970 h4         1 SFY       0.022100
@<TRIPOS>BOND
     1     1     2 2   
     2     2     3 2   
     3     2     4 1   
     4     2    11 1   
     5     4     5 ar  
     6     4    10 ar  
     7     5     6 ar  
     8     5    18 1   
     9     6     7 ar  
    10     6    19 1   
    11     7     8 1   
    12     7     9 ar  
    13     8    20 1   
    14     8    21 1   
    15     9    10 ar  
    16     9    22 1   
    17    10    23 1   
    18    11    12 1   
    19    11    24 1   
    20    12    13 ar  
    21    12    17 ar  
    22    13    14 ar  
    23    13    25 1   
    24    14    15 ar  
    25    14    26 1   
    26    15    16 ar  
    27    15    27 1   
    28    16    17 ar  
    29    16    28 1   
@<TRIPOS>SUBSTRUCTURE
     1 SFY         1 TEMP              0 ****  ****    0 ROOT
