@<TRIPOS>MOLECULE
SFY
   28    29     1     0     0
SMALL
No Charge or Current Charge


@<TRIPOS>ATOM
      1 OAB          0.4080     1.9690    -2.0060 o          1 SFY      -0.535500
      2 SAQ          0.1060     1.9170    -0.5720 sy         1 SFY       1.202600
      3 OAC         -0.2140     3.1180     0.2010 o          1 SFY      -0.535500
      4 CAP         -1.1030     0.6410    -0.2170 ca         1 SFY      -0.370500
      5 CAJ         -1.8170     0.6660     0.9970 ca         1 SFY       0.050500
      6 CAH         -2.7550    -0.3440     1.2710 ca         1 SFY      -0.224000
      7 CAN         -2.9760    -1.3680     0.3450 ca         1 SFY       0.379000
      8 NAA         -3.8890    -2.3440     0.6180 nv         1 SFY      -1.099000
      9 CAI         -2.2660    -1.3960    -0.8590 ca         1 SFY      -0.224000
     10 CAK         -1.3250    -0.3930    -1.1460 ca         1 SFY       0.050500
     11 NAM          1.5090     1.3970     0.1560 nu         1 SFY      -0.880000
     12 CAO          2.0160     0.1330     0.1360 ca         1 SFY       0.616900
     13 CAG          2.4980    -0.4540     1.3160 ca         1 SFY      -0.203000
     14 CAE          3.0380    -1.7480     1.2650 ca         1 SFY      -0.042000
     15 CAD          3.0780    -2.3890     0.0180 ca         1 SFY      -0.200000
     16 CAF          2.5870    -1.7160    -1.1130 ca         1 SFY       0.385900
     17 NAL          2.0680    -0.4700    -1.0590 nb         1 SFY      -0.729000
     18 H1          -1.6520     1.4570     1.7270 ha         1 SFY       0.134000
     19 H2          -3.3050    -0.3240     2.2070 ha         1 SFY       0.115500
     20 H3          -4.5360    -2.2130     1.3930 hn         1 SFY       0.476000
     21 H4          -4.1880    -2.9680    -0.1290 hn         1 SFY       0.476000
     22 H5          -2.4350    -2.1930    -1.5760 ha         1 SFY       0.115500
     23 H6          -0.7730    -0.4280    -2.0840 ha         1 SFY       0.134000
     24 H7           1.4760     1.8160     1.0690 hn         1 SFY       0.511000
     25 H8           2.4510     0.0820     2.2590 ha         1 SFY       0.126000
     26 H9           3.4150    -2.2370     2.1620 ha         1 SFY       0.119000
     27 H10          3.4860    -3.3910    -0.0800 ha         1 SFY       0.128000
     28 H11          2.6120    -2.1890    -2.0940 h4         1 SFY       0.022100
@<TRIPOS>BOND
     1     1     2 2   
     2     2     3 2   
     3     2     4 1   
     4     2    11 1   
     5     4     5 ar  
     6     4    10 ar  
     7     5     6 ar  
     8     5    18 1   
     9     6     7 ar  
    10     6    19 1   
    11     7     8 1   
    12     7     9 ar  
    13     8    20 1   
    14     8    21 1   
    15     9    10 ar  
    16     9    22 1   
    17    10    23 1   
    18    11    12 1   
    19    11    24 1   
    20    12    13 ar  
    21    12    17 ar  
    22    13    14 ar  
    23    13    25 1   
    24    14    15 ar  
    25    14    26 1   
    26    15    16 ar  
    27    15    27 1   
    28    16    17 ar  
    29    16    28 1   
@<TRIPOS>SUBSTRUCTURE
     1 SFY         1 TEMP              0 ****  ****    0 ROOT
