@<TRIPOS>MOLECULE
SG0
   36    37     1     0     0
SMALL
No Charge or Current Charge


@<TRIPOS>ATOM
      1 C1          20.1650    22.9730    -8.1200 c3         1 SG0       0.184300
      2 C2          20.0440    23.8930    -6.8830 c3         1 SG0      -0.121100
      3 C3          18.8710    20.9650    -7.2460 ca         1 SG0       0.191100
      4 C4          18.9570    19.5940    -6.9570 ca         1 SG0      -0.203000
      5 C5          19.5440    17.1570    -6.5990 cc         1 SG0      -0.179000
      6 C6          20.2090    15.8560    -6.5190 ce         1 SG0       0.686500
      7 C10         15.4580    18.7340    -5.6280 c3         1 SG0       0.446800
      8 C11         16.5390    20.8930    -6.4880 ca         1 SG0      -0.064000
      9 N           19.6300    14.8230    -6.0630 n2         1 SG0      -0.836100
     10 C           19.2700    23.3290    -9.3300 c3         1 SG0      -0.121100
     11 O           20.0080    21.5810    -7.7500 os         1 SG0      -0.366100
     12 C12         17.6370    21.6120    -7.0060 ca         1 SG0      -0.194000
     13 C7          18.2420    17.4980    -6.2590 cd         1 SG0      -0.146200
     14 C8          17.8830    18.8880    -6.4530 ca         1 SG0      -0.018800
     15 C9          16.6440    19.5120    -6.1980 ca         1 SG0      -0.124300
     16 N1          21.4630    15.6930    -6.9740 nv         1 SG0      -1.039200
     17 N2          14.4120    18.5750    -6.5790 n8         1 SG0      -1.001200
     18 O1          14.7790    19.4680    -4.6540 oh         1 SG0      -0.714000
     19 S           20.4220    18.5990    -7.1940 ss         1 SG0       0.119400
     20 H3          21.1990    23.0900    -8.4740 h1         1 SG0       0.075700
     21 H4          20.6270    23.4880    -6.0470 hc         1 SG0       0.049033
     22 H6          20.4440    24.8860    -7.1190 hc         1 SG0       0.049033
     23 H5          19.0110    24.0280    -6.5520 hc         1 SG0       0.049033
     24 H11         15.7570    17.7630    -5.2100 h2         1 SG0       0.051700
     25 H15         15.6020    21.4160    -6.3120 ha         1 SG0       0.122000
     26 H7          18.7060    15.1030    -5.7160 hn         1 SG0       0.388400
     27 H           19.3430    22.5540   -10.1020 hc         1 SG0       0.049033
     28 H2          18.2180    23.4510    -9.0610 hc         1 SG0       0.049033
     29 H1          19.6050    24.2740    -9.7730 hc         1 SG0       0.049033
     30 H16         17.4950    22.6650    -7.2050 ha         1 SG0       0.119000
     31 H10         17.5350    16.7640    -5.8860 ha         1 SG0       0.213000
     32 H17         21.7140    14.7240    -7.1250 hn         1 SG0       0.475000
     33 H9          21.7700    16.3480    -7.6810 hn         1 SG0       0.475000
     34 H18         13.6130    18.2400    -6.0380 hn         1 SG0       0.416000
     35 H13         14.1280    19.5250    -6.8210 hn         1 SG0       0.416000
     36 H12         15.4540    19.6810    -3.9750 ho         1 SG0       0.455000
@<TRIPOS>BOND
     1     1     2 1   
     2     1    10 1   
     3     1    11 1   
     4     1    20 1   
     5     2    21 1   
     6     2    22 1   
     7     2    23 1   
     8     3     4 ar  
     9     3    11 1   
    10     3    12 ar  
    11     4    14 ar  
    12     4    19 1   
    13     5     6 1   
    14     5    13 2   
    15     5    19 1   
    16     6     9 2   
    17     6    16 1   
    18     7    15 1   
    19     7    17 1   
    20     7    18 1   
    21     7    24 1   
    22     8    12 ar  
    23     8    15 ar  
    24     8    25 1   
    25     9    26 1   
    26    10    27 1   
    27    10    28 1   
    28    10    29 1   
    29    12    30 1   
    30    13    14 1   
    31    13    31 1   
    32    14    15 ar  
    33    16    32 1   
    34    16    33 1   
    35    17    34 1   
    36    17    35 1   
    37    18    36 1   
@<TRIPOS>SUBSTRUCTURE
     1 SG0         1 TEMP              0 ****  ****    0 ROOT
