@<TRIPOS>MOLECULE
SG0
   36    37     1     0     0
SMALL
abcg2


@<TRIPOS>ATOM
      1 C1          20.1860    22.9460    -8.0700 c3         1 SG0       0.184300
      2 C2          20.1310    23.8480    -6.8460 c3         1 SG0      -0.121100
      3 C3          18.8740    21.0150    -7.2180 ca         1 SG0       0.191100
      4 C4          18.9360    19.6390    -6.9470 ca         1 SG0      -0.203000
      5 C5          19.4590    17.2370    -6.5960 cc         1 SG0      -0.179000
      6 C6          20.1130    15.9140    -6.5090 ce         1 SG0       0.686500
      7 C10         15.4450    18.8310    -5.5990 c3         1 SG0       0.446800
      8 C11         16.5900    20.9480    -6.4040 ca         1 SG0      -0.064000
      9 N           19.8390    15.0360    -5.6090 n2         1 SG0      -0.836100
     10 C           19.2910    23.3820    -9.2210 c3         1 SG0      -0.121100
     11 O           20.0110    21.5420    -7.7310 os         1 SG0      -0.366100
     12 C12         17.6790    21.6600    -6.9330 ca         1 SG0      -0.194000
     13 C7          18.1860    17.5400    -6.2250 cd         1 SG0      -0.146200
     14 C8          17.8500    18.9200    -6.4120 ca         1 SG0      -0.018800
     15 C9          16.6400    19.5940    -6.1390 ca         1 SG0      -0.124300
     16 N1          21.0940    15.6810    -7.4340 nv         1 SG0      -1.039200
     17 N2          14.8220    18.0730    -6.6510 n8         1 SG0      -1.001200
     18 O1          14.4760    19.7050    -4.9930 oh         1 SG0      -0.714000
     19 S           20.3260    18.6310    -7.2070 ss         1 SG0       0.119400
     20 H3          21.2140    22.9380    -8.4320 h1         1 SG0       0.075700
     21 H4          20.7520    23.4400    -6.0470 hc         1 SG0       0.049033
     22 H6          20.5230    24.8290    -7.1170 hc         1 SG0       0.049033
     23 H5          19.1190    23.9850    -6.4660 hc         1 SG0       0.049033
     24 H11         15.7840    18.1220    -4.8360 h2         1 SG0       0.051700
     25 H15         15.6780    21.4900    -6.1940 ha         1 SG0       0.122000
     26 H7          19.1700    15.4090    -4.9410 hn         1 SG0       0.388400
     27 H           19.3340    22.6510   -10.0300 hc         1 SG0       0.049033
     28 H2          18.2520    23.5160    -8.9260 hc         1 SG0       0.049033
     29 H1          19.6570    24.3360    -9.6040 hc         1 SG0       0.049033
     30 H16         17.5630    22.7160    -7.1120 ha         1 SG0       0.119000
     31 H10         17.4970    16.7990    -5.8470 ha         1 SG0       0.213000
     32 H17         21.4730    14.7450    -7.4520 hn         1 SG0       0.475000
     33 H9          21.0280    16.1340    -8.3320 hn         1 SG0       0.475000
     34 H18         14.0160    17.5700    -6.2950 hn         1 SG0       0.416000
     35 H13         14.5080    18.6890    -7.3940 hn         1 SG0       0.416000
     36 H12         14.8820    20.1310    -4.2250 ho         1 SG0       0.455000
@<TRIPOS>BOND
     1     1     2 1   
     2     1    10 1   
     3     1    11 1   
     4     1    20 1   
     5     2    21 1   
     6     2    22 1   
     7     2    23 1   
     8     3     4 ar  
     9     3    11 1   
    10     3    12 ar  
    11     4    14 ar  
    12     4    19 1   
    13     5     6 1   
    14     5    13 2   
    15     5    19 1   
    16     6     9 2   
    17     6    16 1   
    18     7    15 1   
    19     7    17 1   
    20     7    18 1   
    21     7    24 1   
    22     8    12 ar  
    23     8    15 ar  
    24     8    25 1   
    25     9    26 1   
    26    10    27 1   
    27    10    28 1   
    28    10    29 1   
    29    12    30 1   
    30    13    14 1   
    31    13    31 1   
    32    14    15 ar  
    33    16    32 1   
    34    16    33 1   
    35    17    34 1   
    36    17    35 1   
    37    18    36 1   
@<TRIPOS>SUBSTRUCTURE
     1 SG0         1 TEMP              0 ****  ****    0 ROOT
