@<TRIPOS>MOLECULE
SG1
   30    31     1     0     0
SMALL
No Charge or Current Charge


@<TRIPOS>ATOM
      1 S1          -3.6350     0.2680    -0.0540 sy         1 SG1       1.137600
      2 C2          -1.8480     0.3490     0.0230 ca         1 SG1      -0.276500
      3 C3          -1.1900     1.5780    -0.1480 ca         1 SG1       0.038000
      4 C4           0.2110     1.6370    -0.0850 ca         1 SG1      -0.130000
      5 C5           0.9810     0.4880     0.1930 ca         1 SG1       0.085000
      6 N6           2.4200     0.5760     0.1690 n          1 SG1      -0.279400
      7 C7           3.1670     1.2790    -0.7910 c          1 SG1       0.585000
      8 O8           2.7180     2.0290    -1.6470 o          1 SG1      -0.519000
      9 C9           4.6210     1.0860    -0.3690 c5         1 SG1      -0.162400
     10 C10          4.5190     0.9420     1.1700 c5         1 SG1      -0.088400
     11 C11          3.2470     0.0490     1.2810 c5         1 SG1       0.109000
     12 C12          0.3140    -0.7640     0.2730 ca         1 SG1      -0.199200
     13 N13          1.0570    -2.0440     0.3820 no         1 SG1       0.694200
     14 O14          0.6520    -2.8700     1.2080 o          1 SG1      -0.387500
     15 O15          1.8990    -2.2980    -0.4890 o          1 SG1      -0.387500
     16 C16         -1.0950    -0.8230     0.2200 ca         1 SG1       0.040000
     17 N17         -3.9200    -0.0020    -1.6360 n8         1 SG1      -1.014100
     18 O18         -4.2300     1.5800     0.1830 o          1 SG1      -0.535500
     19 O19         -4.1310    -0.9440     0.5950 o          1 SG1      -0.535500
     20 H31         -1.7560     2.4910    -0.3310 ha         1 SG1       0.148000
     21 H41          0.6950     2.6020    -0.2080 ha         1 SG1       0.142000
     22 H91          5.2590     1.8980    -0.7330 hc         1 SG1       0.085700
     23 H92          4.9670     0.1330    -0.7860 hc         1 SG1       0.085700
     24 H101         4.3630     1.9150     1.6520 hc         1 SG1       0.061200
     25 H102         5.4050     0.4820     1.6240 hc         1 SG1       0.061200
     26 H111         2.7510     0.1530     2.2550 h1         1 SG1       0.054700
     27 H112         3.4980    -1.0080     1.1250 h1         1 SG1       0.054700
     28 H161        -1.6020    -1.7860     0.3040 ha         1 SG1       0.170000
     29 H171        -4.5460    -0.8030    -1.5730 hn         1 SG1       0.482500
     30 H172        -4.5690     0.7560    -1.8340 hn         1 SG1       0.482500
@<TRIPOS>BOND
     1     1     2 1   
     2     1    17 1   
     3     1    18 2   
     4     1    19 2   
     5     2     3 ar  
     6     2    16 ar  
     7     3     4 ar  
     8     3    20 1   
     9     4     5 ar  
    10     4    21 1   
    11     5     6 1   
    12     5    12 ar  
    13     6     7 1   
    14     6    11 1   
    15     7     8 2   
    16     7     9 1   
    17     9    10 1   
    18     9    22 1   
    19     9    23 1   
    20    10    11 1   
    21    10    24 1   
    22    10    25 1   
    23    11    26 1   
    24    11    27 1   
    25    12    13 1   
    26    12    16 ar  
    27    13    14 1   
    28    13    15 1   
    29    16    28 1   
    30    17    29 1   
    31    17    30 1   
@<TRIPOS>SUBSTRUCTURE
     1 SG1         1 TEMP              0 ****  ****    0 ROOT
