@<TRIPOS>MOLECULE
SG1
   30    31     1     0     0
SMALL
abcg2


@<TRIPOS>ATOM
      1 S1          -3.5920     0.1440     0.0280 sy         1 SG1       1.137600
      2 C2          -1.8210     0.2730     0.0730 ca         1 SG1      -0.276500
      3 C3          -1.2350     1.5310     0.0860 ca         1 SG1       0.038000
      4 C4           0.1430     1.6310     0.1370 ca         1 SG1      -0.130000
      5 C5           0.9470     0.4980     0.1510 ca         1 SG1       0.085000
      6 N6           2.3370     0.6570     0.2300 n          1 SG1      -0.279400
      7 C7           3.1100     0.8180    -0.8790 c          1 SG1       0.585000
      8 O8           2.6820     0.9320    -2.0090 o          1 SG1      -0.519000
      9 C9           4.5490     0.7980    -0.4240 c5         1 SG1      -0.162400
     10 C10          4.4690     1.0260     1.0820 c5         1 SG1      -0.088400
     11 C11          3.0910     0.4820     1.4660 c5         1 SG1       0.109000
     12 C12          0.3230    -0.7500     0.1270 ca         1 SG1      -0.199200
     13 N13          1.0970    -1.9840     0.1170 no         1 SG1       0.694200
     14 O14          0.6330    -2.9320     0.7030 o          1 SG1      -0.387500
     15 O15          2.1420    -1.9950    -0.4860 o          1 SG1      -0.387500
     16 C16         -1.0570    -0.8760     0.1110 ca         1 SG1       0.040000
     17 N17         -3.8850     0.4890    -1.5530 n8         1 SG1      -1.014100
     18 O18         -4.1610     1.2420     0.7930 o          1 SG1      -0.535500
     19 O19         -3.9360    -1.2210     0.3920 o          1 SG1      -0.535500
     20 H31         -1.8380     2.4280     0.0650 ha         1 SG1       0.148000
     21 H41          0.6140     2.6030     0.1770 ha         1 SG1       0.142000
     22 H91          5.1430     1.5400    -0.9570 hc         1 SG1       0.085700
     23 H92          4.9590    -0.1870    -0.6650 hc         1 SG1       0.085700
     24 H101         4.5190     2.0920     1.3020 hc         1 SG1       0.061200
     25 H102         5.2650     0.5320     1.6340 hc         1 SG1       0.061200
     26 H111         2.6280     1.0390     2.2800 h1         1 SG1       0.054700
     27 H112         3.1370    -0.5710     1.7570 h1         1 SG1       0.054700
     28 H161        -1.5200    -1.8530     0.1050 ha         1 SG1       0.170000
     29 H171        -3.7000    -0.2900    -2.1770 hn         1 SG1       0.482500
     30 H172        -4.8240     0.8500    -1.6950 hn         1 SG1       0.482500
@<TRIPOS>BOND
     1     1     2 1   
     2     1    17 1   
     3     1    18 2   
     4     1    19 2   
     5     2     3 ar  
     6     2    16 ar  
     7     3     4 ar  
     8     3    20 1   
     9     4     5 ar  
    10     4    21 1   
    11     5     6 1   
    12     5    12 ar  
    13     6     7 1   
    14     6    11 1   
    15     7     8 2   
    16     7     9 1   
    17     9    10 1   
    18     9    22 1   
    19     9    23 1   
    20    10    11 1   
    21    10    24 1   
    22    10    25 1   
    23    11    26 1   
    24    11    27 1   
    25    12    13 1   
    26    12    16 ar  
    27    13    14 1   
    28    13    15 1   
    29    16    28 1   
    30    17    29 1   
    31    17    30 1   
@<TRIPOS>SUBSTRUCTURE
     1 SG1         1 TEMP              0 ****  ****    0 ROOT
