@<TRIPOS>MOLECULE
SG2
   23    24     1     0     0
SMALL
No Charge or Current Charge


@<TRIPOS>ATOM
      1 S1          -0.0820    -0.2920    -3.0120 sy         1 SG2       1.134600
      2 C2           0.3170    -0.0080    -1.2980 ca         1 SG2      -0.347500
      3 C3           1.6370     0.3440    -0.9220 ca         1 SG2       0.045000
      4 C4           1.9490     0.5630     0.4340 ca         1 SG2      -0.193000
      5 C5           0.9290     0.4360     1.3830 ca         1 SG2       0.122800
      6 N            1.0390     0.5190     2.7540 na         1 SG2      -0.110400
      7 C6           1.9410    -0.4610     3.3820 c3         1 SG2       0.073900
      8 S7          -0.4440     0.8720     3.5750 ss         1 SG2      -0.135000
      9 C8          -1.2950     0.0420     2.1870 c          1 SG2       0.617300
     10 O9          -2.5040    -0.1250     2.0980 o          1 SG2      -0.480100
     11 C10         -0.3620     0.0810     1.0170 ca         1 SG2      -0.301600
     12 C11         -0.6980    -0.1450    -0.3260 ca         1 SG2       0.129000
     13 N12         -0.6020     1.1880    -3.4680 n8         1 SG2      -0.998100
     14 O13          1.1400    -0.4900    -3.7860 o          1 SG2      -0.544500
     15 O14         -1.2520    -1.1620    -3.1270 o          1 SG2      -0.544500
     16 H31          2.4230     0.4410    -1.6700 ha         1 SG2       0.137000
     17 H41          2.9620     0.8180     0.7350 ha         1 SG2       0.129000
     18 H61          1.9320    -0.3290     4.4710 h1         1 SG2       0.056700
     19 H62          1.6110    -1.4790     3.1390 h1         1 SG2       0.056700
     20 H63          2.9640    -0.3140     3.0150 h1         1 SG2       0.056700
     21 H111        -1.7190    -0.4070    -0.6030 ha         1 SG2       0.157000
     22 H121        -0.0600     1.3300    -4.3170 hn         1 SG2       0.471000
     23 H122        -0.1520     1.7930    -2.7860 hn         1 SG2       0.471000
@<TRIPOS>BOND
     1     1     2 1   
     2     1    13 1   
     3     1    14 2   
     4     1    15 2   
     5     2     3 ar  
     6     2    12 ar  
     7     3     4 ar  
     8     3    16 1   
     9     4     5 ar  
    10     4    17 1   
    11     5     6 1   
    12     5    11 ar  
    13     6     7 1   
    14     6     8 1   
    15     7    18 1   
    16     7    19 1   
    17     7    20 1   
    18     8     9 1   
    19     9    10 2   
    20     9    11 1   
    21    11    12 ar  
    22    12    21 1   
    23    13    22 1   
    24    13    23 1   
@<TRIPOS>SUBSTRUCTURE
     1 SG2         1 TEMP              0 ****  ****    0 ROOT
