@<TRIPOS>MOLECULE
SG2
   23    24     1     0     0
SMALL
bcc


@<TRIPOS>ATOM
      1 S1          -0.0560    -0.1010    -3.0290 sy         1 SG2       1.276200
      2 C2           0.2760    -0.0430    -1.2990 ca         1 SG2      -0.347500
      3 C3           1.6050    -0.0070    -0.8440 ca         1 SG2       0.027000
      4 C4           1.8970     0.0350     0.4970 ca         1 SG2      -0.211000
      5 C5           0.8330     0.0430     1.4150 ca         1 SG2       0.122800
      6 N            0.9360     0.1030     2.7560 na         1 SG2      -0.081100
      7 C6           2.1550    -0.0560     3.5200 c3         1 SG2       0.044600
      8 S7          -0.5730     0.0030     3.5440 ss         1 SG2      -0.135000
      9 C8          -1.4770    -0.0520     2.0100 c          1 SG2       0.617300
     10 O9          -2.6810    -0.1040     1.9480 o          1 SG2      -0.480100
     11 C10         -0.4920    -0.0160     0.9470 ca         1 SG2      -0.301600
     12 C11         -0.7780    -0.0510    -0.4110 ca         1 SG2       0.111000
     13 N12         -0.3880     1.4860    -3.3500 n8         1 SG2      -0.887700
     14 O13          1.1500    -0.5760    -3.6950 o          1 SG2      -0.615300
     15 O14         -1.3000    -0.8200    -3.2640 o          1 SG2      -0.615300
     16 H31          2.4200    -0.0150    -1.5550 ha         1 SG2       0.155000
     17 H41          2.9280     0.0580     0.8230 ha         1 SG2       0.147000
     18 H61          2.0230     0.3780     4.5080 h1         1 SG2       0.056700
     19 H62          2.4320    -1.1060     3.6240 h1         1 SG2       0.056700
     20 H63          2.9620     0.4840     3.0300 h1         1 SG2       0.056700
     21 H111        -1.8070    -0.0940    -0.7470 ha         1 SG2       0.175000
     22 H121        -0.8260     1.5940    -4.2610 hn         1 SG2       0.415800
     23 H122         0.4370     2.0750    -3.2920 hn         1 SG2       0.415800
@<TRIPOS>BOND
     1     1     2 1   
     2     1    13 1   
     3     1    14 2   
     4     1    15 2   
     5     2     3 ar  
     6     2    12 ar  
     7     3     4 ar  
     8     3    16 1   
     9     4     5 ar  
    10     4    17 1   
    11     5     6 1   
    12     5    11 ar  
    13     6     7 1   
    14     6     8 1   
    15     7    18 1   
    16     7    19 1   
    17     7    20 1   
    18     8     9 1   
    19     9    10 2   
    20     9    11 1   
    21    11    12 ar  
    22    12    21 1   
    23    13    22 1   
    24    13    23 1   
@<TRIPOS>SUBSTRUCTURE
     1 SG2         1 TEMP              0 ****  ****    0 ROOT
