@<TRIPOS>MOLECULE
SG3
   23    22     1     0     0
SMALL
abcg2


@<TRIPOS>ATOM
      1 O3           2.7010     1.5580    -0.5390 o          1 SG3      -0.930833
      2 P            2.9210     0.1250    -0.0450 p5         1 SG3       1.141100
      3 O4           3.7740    -0.7380    -0.9810 o          1 SG3      -0.930833
      4 O2           3.3440     0.0270     1.4250 o          1 SG3      -0.930833
      5 C5           1.2640    -0.6830    -0.0910 c2         1 SG3      -0.193600
      6 C6           0.1440    -0.1070    -0.5220 c2         1 SG3      -0.347200
      7 C7          -1.2160    -0.7490    -0.5940 c3         1 SG3       0.193500
      8 O13         -1.2580    -2.0450    -0.0510 oh         1 SG3      -0.692000
      9 C8          -2.3120     0.1380     0.0420 c3         1 SG3       0.178000
     10 C12         -2.0880     0.3740     1.5220 c3         1 SG3      -0.105100
     11 F11         -2.2260     1.3850    -0.6060 f          1 SG3      -0.265000
     12 C9          -3.6850    -0.4310    -0.2730 c3         1 SG3       0.127600
     13 O10         -4.6820     0.3840     0.2930 oh         1 SG3      -0.657000
     14 H5C2         1.2230    -1.7200     0.2480 ha         1 SG3       0.113000
     15 H6C2         0.1970     0.9160    -0.8800 ha         1 SG3       0.203000
     16 H7          -1.4830    -0.8650    -1.6540 h1         1 SG3       0.043700
     17 H13         -0.8140    -2.0320     0.8050 ho         1 SG3       0.451000
     18 H121        -1.0760     0.7330     1.7100 hc         1 SG3       0.046033
     19 H122        -2.7900     1.1070     1.9150 hc         1 SG3       0.046033
     20 H123        -2.2290    -0.5450     2.0910 hc         1 SG3       0.046033
     21 H9C1        -3.7900    -0.4970    -1.3660 h1         1 SG3       0.024700
     22 H9C2        -3.7280    -1.4550     0.1130 h1         1 SG3       0.024700
     23 H10         -5.5240    -0.0710     0.1990 ho         1 SG3       0.414000
@<TRIPOS>BOND
     1     1     2 1   
     2     2     3 1   
     3     2     4 1   
     4     2     5 1   
     5     5     6 2   
     6     5    14 1   
     7     6     7 1   
     8     6    15 1   
     9     7     8 1   
    10     7     9 1   
    11     7    16 1   
    12     8    17 1   
    13     9    10 1   
    14     9    11 1   
    15     9    12 1   
    16    10    18 1   
    17    10    19 1   
    18    10    20 1   
    19    12    13 1   
    20    12    21 1   
    21    12    22 1   
    22    13    23 1   
@<TRIPOS>SUBSTRUCTURE
     1 SG3         1 TEMP              0 ****  ****    0 ROOT
