@<TRIPOS>MOLECULE
SG3
   23    22     1     0     0
SMALL
No Charge or Current Charge


@<TRIPOS>ATOM
      1 O3           3.0500     1.4050     0.1640 o          1 SG3      -0.930833
      2 P            3.0950    -0.0100    -0.3030 p5         1 SG3       1.141100
      3 O4           3.6830    -0.1890    -1.6600 o          1 SG3      -0.930833
      4 O2           3.8670    -0.9180     0.5910 o          1 SG3      -0.930833
      5 C5           1.3600    -0.7290    -0.3870 c2         1 SG3      -0.193600
      6 C6           0.1890    -0.1310    -0.0750 c2         1 SG3      -0.347200
      7 C7          -1.1810    -0.7690    -0.1800 c3         1 SG3       0.193500
      8 O13         -1.1760    -1.8650     0.7340 oh         1 SG3      -0.692000
      9 C8          -2.4030     0.1940     0.0720 c3         1 SG3       0.178000
     10 C12         -2.4420     0.7400     1.5270 c3         1 SG3      -0.105100
     11 F11         -2.2700     1.2640    -0.7600 f          1 SG3      -0.265000
     12 C9          -3.7360    -0.5420    -0.2900 c3         1 SG3       0.127600
     13 O10         -4.8920     0.3180    -0.2020 oh         1 SG3      -0.657000
     14 H5C2         1.3900    -1.7540    -0.7460 ha         1 SG3       0.113000
     15 H6C2         0.1940     0.9060     0.2650 ha         1 SG3       0.203000
     16 H7          -1.2810    -1.1580    -1.2040 h1         1 SG3       0.043700
     17 H13         -0.2260    -2.0350     0.9150 ho         1 SG3       0.451000
     18 H121        -1.5060     1.2430     1.7920 hc         1 SG3       0.046033
     19 H122        -3.2530     1.4680     1.6490 hc         1 SG3       0.046033
     20 H123        -2.6090    -0.0710     2.2460 hc         1 SG3       0.046033
     21 H9C1        -3.6520    -0.9430    -1.3090 h1         1 SG3       0.024700
     22 H9C2        -3.8630    -1.4000     0.3840 h1         1 SG3       0.024700
     23 H10         -5.6710    -0.2190    -0.4650 ho         1 SG3       0.414000
@<TRIPOS>BOND
     1     1     2 1   
     2     2     3 1   
     3     2     4 1   
     4     2     5 1   
     5     5     6 2   
     6     5    14 1   
     7     6     7 1   
     8     6    15 1   
     9     7     8 1   
    10     7     9 1   
    11     7    16 1   
    12     8    17 1   
    13     9    10 1   
    14     9    11 1   
    15     9    12 1   
    16    10    18 1   
    17    10    19 1   
    18    10    20 1   
    19    12    13 1   
    20    12    21 1   
    21    12    22 1   
    22    13    23 1   
@<TRIPOS>SUBSTRUCTURE
     1 SG3         1 TEMP              0 ****  ****    0 ROOT
