@<TRIPOS>MOLECULE
SG4
   39    39     1     0     0
SMALL
abcg2


@<TRIPOS>ATOM
      1 C1          17.0420     2.3570    11.5630 c6         1 SG4       0.386300
      2 O1          18.3790     2.2550    11.2180 oh         1 SG4      -0.654000
      3 C2          16.4390     3.5550    10.8270 c6         1 SG4       0.152300
      4 O2          16.6900     3.4190     9.4570 oh         1 SG4      -0.693000
      5 C3          17.0190     4.8520    11.3920 c6         1 SG4       0.122300
      6 O3          16.3250     5.9410    10.7930 os         1 SG4      -0.460100
      7 C4          16.7890     4.8900    12.8950 c6         1 SG4       0.135300
      8 O4          17.3950     6.0500    13.4470 os         1 SG4      -0.454100
      9 C5          17.4460     3.6550    13.5140 c6         1 SG4       0.167300
     10 O5          16.8500     2.5050    12.9500 os         1 SG4      -0.477000
     11 C6          17.3260     3.5800    15.0160 c3         1 SG4       0.207600
     12 O6          15.9450     3.7460    15.3770 os         1 SG4      -0.554700
     13 OAB         16.5060     4.0210    17.7970 o          1 SG4      -0.553000
     14 NAH         15.6390     1.8510    16.9700 n8         1 SG4      -1.052100
     15 SAI         15.5170     3.4840    16.8900 s6         1 SG4       1.398800
     16 OAQ         14.1570     3.9640    16.9360 o          1 SG4      -0.553000
     17 OAW         15.4230     7.0480    13.8400 o          1 SG4      -0.462000
     18 CAX         16.6230     7.0490    13.9010 c          1 SG4       0.597100
     19 CAY         17.0020     6.9430    10.2200 c          1 SG4       0.599100
     20 OAZ         18.2020     6.9970    10.1610 o          1 SG4      -0.469000
     21 CBA         17.4630     8.1430    14.4860 c3         1 SG4      -0.157100
     22 CBB         16.0580     7.9740     9.6790 c3         1 SG4      -0.158100
     23 H1          16.4850     1.4500    11.3030 h2         1 SG4       0.077700
     24 HO1         18.7150     1.3940    11.4920 ho         1 SG4       0.456000
     25 H2          15.3610     3.5410    11.0400 h1         1 SG4       0.058700
     26 HO2         16.0140     3.9010     8.9710 ho         1 SG4       0.513000
     27 H3          18.0880     4.9170    11.1740 h1         1 SG4       0.107700
     28 H4          15.7160     4.8820    13.0990 h1         1 SG4       0.107700
     29 H5          18.5250     3.6790    13.3100 h1         1 SG4       0.070700
     30 H61         17.7010     2.6120    15.3590 h1         1 SG4       0.069200
     31 H62         17.9260     4.3670    15.4730 h1         1 SG4       0.069200
     32 HNAH        15.7970     1.5190    17.9160 hn         1 SG4       0.484500
     33 HNAA        14.8650     1.3610    16.5330 hn         1 SG4       0.484500
     34 HBA         16.8340     8.9540    14.8400 hc         1 SG4       0.072700
     35 HBAA        18.0550     7.7610    15.3180 hc         1 SG4       0.072700
     36 HBAB        18.1600     8.5290    13.7420 hc         1 SG4       0.072700
     37 HBB         16.6060     8.7640     9.1740 hc         1 SG4       0.071700
     38 HBBA        15.3540     7.5210     8.9810 hc         1 SG4       0.071700
     39 HBBB        15.4730     8.4090    10.4910 hc         1 SG4       0.071700
@<TRIPOS>BOND
     1     1     2 1   
     2     1     3 1   
     3     1    10 1   
     4     1    23 1   
     5     2    24 1   
     6     3     4 1   
     7     3     5 1   
     8     3    25 1   
     9     4    26 1   
    10     5     6 1   
    11     5     7 1   
    12     5    27 1   
    13     6    19 1   
    14     7     8 1   
    15     7     9 1   
    16     7    28 1   
    17     8    18 1   
    18     9    10 1   
    19     9    11 1   
    20     9    29 1   
    21    11    12 1   
    22    11    30 1   
    23    11    31 1   
    24    12    15 1   
    25    13    15 2   
    26    14    15 1   
    27    14    32 1   
    28    14    33 1   
    29    15    16 2   
    30    17    18 2   
    31    18    21 1   
    32    19    20 2   
    33    19    22 1   
    34    21    34 1   
    35    21    35 1   
    36    21    36 1   
    37    22    37 1   
    38    22    38 1   
    39    22    39 1   
@<TRIPOS>SUBSTRUCTURE
     1 SG4         1 TEMP              0 ****  ****    0 ROOT
