@<TRIPOS>MOLECULE
SG4
   39    39     1     0     0
SMALL
No Charge or Current Charge


@<TRIPOS>ATOM
      1 C1          17.1580     2.2110    11.5570 c6         1 SG4       0.386300
      2 O1          18.5450     2.1850    11.2180 oh         1 SG4      -0.654000
      3 C2          16.3830     3.3960    10.8800 c6         1 SG4       0.152300
      4 O2          16.3930     3.3350     9.4330 oh         1 SG4      -0.693000
      5 C3          16.9380     4.7620    11.3790 c6         1 SG4       0.122300
      6 O3          16.2000     5.8310    10.7260 os         1 SG4      -0.460100
      7 C4          16.8660     4.8210    12.9430 c6         1 SG4       0.135300
      8 O4          17.4670     6.0260    13.4810 os         1 SG4      -0.454100
      9 C5          17.5970     3.5800    13.5410 c6         1 SG4       0.167300
     10 O5          17.0730     2.3380    12.9880 os         1 SG4      -0.477000
     11 C6          17.4700     3.4970    15.0920 c3         1 SG4       0.207600
     12 O6          16.0780     3.5040    15.4720 os         1 SG4      -0.554700
     13 OAB         16.9730     3.3380    17.8600 o          1 SG4      -0.553000
     14 NAH         15.1900     1.8570    16.9660 n8         1 SG4      -1.052100
     15 SAI         15.7500     3.3640    17.0600 s6         1 SG4       1.398800
     16 OAQ         14.5940     4.1870    17.3980 o          1 SG4      -0.553000
     17 OAW         15.5340     7.2670    13.4600 o          1 SG4      -0.462000
     18 CAX         16.7340     7.1690    13.6660 c          1 SG4       0.597100
     19 CAY         16.7740     7.0520    10.4850 c          1 SG4       0.599100
     20 OAZ         17.9460     7.3240    10.6960 o          1 SG4      -0.469000
     21 CBA         17.5920     8.2980    14.2130 c3         1 SG4      -0.157100
     22 CBB         15.7870     8.0150     9.8440 c3         1 SG4      -0.158100
     23 H1          16.6840     1.2640    11.2510 h2         1 SG4       0.077700
     24 HO1         18.9080     1.4090    11.6940 ho         1 SG4       0.456000
     25 H2          15.3410     3.3240    11.2260 h1         1 SG4       0.058700
     26 HO2         16.0530     4.2090     9.1290 ho         1 SG4       0.513000
     27 H3          17.9950     4.8180    11.0750 h1         1 SG4       0.107700
     28 H4          15.8120     4.7680    13.2550 h1         1 SG4       0.107700
     29 H5          18.6690     3.6510    13.3060 h1         1 SG4       0.070700
     30 H61         17.9710     2.5790    15.4280 h1         1 SG4       0.069200
     31 H62         18.0010     4.3530    15.5300 h1         1 SG4       0.069200
     32 HNAH        14.2270     2.0370    17.2330 hn         1 SG4       0.484500
     33 HNAA        15.1540     1.7990    15.9520 hn         1 SG4       0.484500
     34 HBA         17.0180     9.2130    14.3970 hc         1 SG4       0.072700
     35 HBAA        18.1040     7.9480    15.1160 hc         1 SG4       0.072700
     36 HBAB        18.4270     8.4700    13.5250 hc         1 SG4       0.072700
     37 HBB         16.2380     8.9830     9.6020 hc         1 SG4       0.071700
     38 HBBA        15.3470     7.5370     8.9620 hc         1 SG4       0.071700
     39 HBBB        14.9210     8.1220    10.5070 hc         1 SG4       0.071700
@<TRIPOS>BOND
     1     1     2 1   
     2     1     3 1   
     3     1    10 1   
     4     1    23 1   
     5     2    24 1   
     6     3     4 1   
     7     3     5 1   
     8     3    25 1   
     9     4    26 1   
    10     5     6 1   
    11     5     7 1   
    12     5    27 1   
    13     6    19 1   
    14     7     8 1   
    15     7     9 1   
    16     7    28 1   
    17     8    18 1   
    18     9    10 1   
    19     9    11 1   
    20     9    29 1   
    21    11    12 1   
    22    11    30 1   
    23    11    31 1   
    24    12    15 1   
    25    13    15 2   
    26    14    15 1   
    27    14    32 1   
    28    14    33 1   
    29    15    16 2   
    30    17    18 2   
    31    18    21 1   
    32    19    20 2   
    33    19    22 1   
    34    21    34 1   
    35    21    35 1   
    36    21    36 1   
    37    22    37 1   
    38    22    38 1   
    39    22    39 1   
@<TRIPOS>SUBSTRUCTURE
     1 SG4         1 TEMP              0 ****  ****    0 ROOT
