@<TRIPOS>MOLECULE
SG5
   53    53     1     0     0
SMALL
No Charge or Current Charge


@<TRIPOS>ATOM
      1 C1          17.0130    -0.2380    11.9020 c6         1 SG5       0.404300
      2 O5          17.0500     0.0160    13.3170 os         1 SG5      -0.428000
      3 C2          16.3310     0.9410    11.1430 c6         1 SG5       0.095300
      4 C3          16.9790     2.3060    11.5410 c6         1 SG5       0.140300
      5 C4          17.0640     2.4750    13.0920 c6         1 SG5       0.134300
      6 C5          17.7460     1.2250    13.7150 c6         1 SG5       0.165300
      7 O1          18.3510    -0.4440    11.4460 oh         1 SG5      -0.686000
      8 O2          16.4440     0.7280     9.7080 os         1 SG5      -0.470100
      9 C2B         15.5180     1.2450     8.8360 c          1 SG5       0.597100
     10 O2C         14.4640     1.7650     9.1690 o          1 SG5      -0.459000
     11 C2D         15.9550     1.0730     7.3820 c3         1 SG5      -0.138400
     12 C2E         16.6570     2.3470     6.8620 c3         1 SG5      -0.082100
     13 O3          16.2320     3.3890    10.9380 os         1 SG5      -0.445100
     14 C3B         16.8610     4.4400    10.3260 c          1 SG5       0.597100
     15 O3C         18.0710     4.5320    10.1820 o          1 SG5      -0.477000
     16 C3D         15.8480     5.4490     9.7810 c3         1 SG5      -0.141400
     17 C3E         16.4460     6.6480     9.0110 c3         1 SG5      -0.081100
     18 O4          17.8090     3.6630    13.4700 os         1 SG5      -0.454100
     19 C4B         17.1970     4.8850    13.5800 c          1 SG5       0.595100
     20 O4C         15.9970     5.0740    13.4490 o          1 SG5      -0.456000
     21 C4D         18.1810     5.9790    13.9980 c3         1 SG5      -0.134400
     22 C4E         18.6320     6.8320    12.7920 c3         1 SG5      -0.089100
     23 C6          17.7730     1.2650    15.2710 c3         1 SG5       0.205600
     24 O6          16.4350     1.4370    15.7820 os         1 SG5      -0.552700
     25 S5C         16.2640     1.4590    17.4010 s6         1 SG5       1.399800
     26 O5D         15.2430     2.4320    17.7750 o          1 SG5      -0.552000
     27 O5E         17.5550     1.3570    18.0780 o          1 SG5      -0.552000
     28 N5F         15.5410     0.0230    17.4970 n8         1 SG5      -1.055100
     29 H1          16.4240    -1.1510    11.7210 h2         1 SG5       0.076700
     30 H2          15.2700     0.9420    11.4330 h1         1 SG5       0.101700
     31 H3          18.0050     2.2990    11.1430 h1         1 SG5       0.099700
     32 H4          16.0450     2.5380    13.5010 h1         1 SG5       0.113700
     33 H5          18.7890     1.1700    13.3690 h1         1 SG5       0.078700
     34 HO1         18.2730    -0.4850    10.4670 ho         1 SG5       0.479000
     35 H2D         16.6780     0.2520     7.3140 hc         1 SG5       0.073200
     36 H2DA        15.0770     0.8700     6.7590 hc         1 SG5       0.073200
     37 H2E         16.9760     2.2130     5.8210 hc         1 SG5       0.046033
     38 H2EA        15.9800     3.2090     6.9050 hc         1 SG5       0.046033
     39 H2EB        17.5440     2.5760     7.4660 hc         1 SG5       0.046033
     40 H3D         15.1200     4.8950     9.1780 hc         1 SG5       0.078700
     41 H3DA        15.2190     5.7700    10.6180 hc         1 SG5       0.078700
     42 H3E         15.6490     7.3150     8.6620 hc         1 SG5       0.043367
     43 H3EA        17.1200     7.2260     9.6550 hc         1 SG5       0.043367
     44 H3EB        17.0120     6.3040     8.1370 hc         1 SG5       0.043367
     45 H4D         17.6990     6.6340    14.7330 hc         1 SG5       0.074700
     46 H4DA        19.0790     5.5170    14.4250 hc         1 SG5       0.074700
     47 H4E         19.3060     7.6330    13.1200 hc         1 SG5       0.045033
     48 H4EA        19.1680     6.2170    12.0600 hc         1 SG5       0.045033
     49 H4EB        17.7690     7.2920    12.2960 hc         1 SG5       0.045033
     50 H61         18.2200     0.3280    15.6310 h1         1 SG5       0.071200
     51 H62         18.4230     2.0930    15.5850 h1         1 SG5       0.071200
     52 HN5F        14.6390     0.3320    17.8460 hn         1 SG5       0.485500
     53 HN5A        15.3860    -0.1070    16.5020 hn         1 SG5       0.485500
@<TRIPOS>BOND
     1     1     2 1   
     2     1     3 1   
     3     1     7 1   
     4     1    29 1   
     5     2     6 1   
     6     3     4 1   
     7     3     8 1   
     8     3    30 1   
     9     4     5 1   
    10     4    13 1   
    11     4    31 1   
    12     5     6 1   
    13     5    18 1   
    14     5    32 1   
    15     6    23 1   
    16     6    33 1   
    17     7    34 1   
    18     8     9 1   
    19     9    10 2   
    20     9    11 1   
    21    11    12 1   
    22    11    35 1   
    23    11    36 1   
    24    12    37 1   
    25    12    38 1   
    26    12    39 1   
    27    13    14 1   
    28    14    15 2   
    29    14    16 1   
    30    16    17 1   
    31    16    40 1   
    32    16    41 1   
    33    17    42 1   
    34    17    43 1   
    35    17    44 1   
    36    18    19 1   
    37    19    20 2   
    38    19    21 1   
    39    21    22 1   
    40    21    45 1   
    41    21    46 1   
    42    22    47 1   
    43    22    48 1   
    44    22    49 1   
    45    23    24 1   
    46    23    50 1   
    47    23    51 1   
    48    24    25 1   
    49    25    26 2   
    50    25    27 2   
    51    25    28 1   
    52    28    52 1   
    53    28    53 1   
@<TRIPOS>SUBSTRUCTURE
     1 SG5         1 TEMP              0 ****  ****    0 ROOT
