@<TRIPOS>MOLECULE
SG5
   53    53     1     0     0
SMALL
bcc


@<TRIPOS>ATOM
      1 C1          16.8540    -0.0100    11.7960 c6         1 SG5       0.357900
      2 O5          16.7720     0.2060    13.1680 os         1 SG5      -0.381600
      3 C2          16.3660     1.2380    11.0410 c6         1 SG5       0.072100
      4 C3          17.1030     2.4780    11.5250 c6         1 SG5       0.117100
      5 C4          16.9460     2.5810    13.0330 c6         1 SG5       0.111100
      6 C5          17.5210     1.3070    13.6540 c6         1 SG5       0.142100
      7 O1          18.1710    -0.3360    11.4830 oh         1 SG5      -0.623800
      8 O2          16.6450     1.0430     9.6620 os         1 SG5      -0.446900
      9 C2B         15.7560     1.4190     8.7300 c          1 SG5       0.646100
     10 O2C         14.6640     1.8490     8.9840 o          1 SG5      -0.508000
     11 C2D         16.3240     1.2180     7.3520 c3         1 SG5      -0.138400
     12 C2E         15.4340     1.7620     6.2500 c3         1 SG5      -0.082100
     13 O3          16.5220     3.6240    10.9200 os         1 SG5      -0.421900
     14 C3B         17.2910     4.4810    10.2320 c          1 SG5       0.646100
     15 O3C         18.4690     4.3270    10.0540 o          1 SG5      -0.526000
     16 C3D         16.4730     5.6330     9.7210 c3         1 SG5      -0.141400
     17 C3E         17.3050     6.7170     9.0620 c3         1 SG5      -0.081100
     18 O4          17.6810     3.7020    13.4950 os         1 SG5      -0.430900
     19 C4B         17.0310     4.7540    14.0210 c          1 SG5       0.644100
     20 O4C         15.8380     4.8010    14.1530 o          1 SG5      -0.505000
     21 C4D         17.9910     5.8510    14.3830 c3         1 SG5      -0.134400
     22 C4E         18.5600     6.5390    13.1420 c3         1 SG5      -0.089100
     23 C6          17.4970     1.2840    15.1620 c3         1 SG5       0.182400
     24 O6          16.1700     1.5990    15.6060 os         1 SG5      -0.529500
     25 S5C         15.8800     1.6480    17.1750 s6         1 SG5       1.541400
     26 O5D         14.5310     2.1530    17.2430 o          1 SG5      -0.622800
     27 O5E         16.9500     2.3370    17.8610 o          1 SG5      -0.622800
     28 N5F         16.0080     0.0610    17.5620 n8         1 SG5      -0.944700
     29 H1          16.1710    -0.8410    11.5820 h2         1 SG5       0.076700
     30 H2          15.2920     1.3500    11.2120 h1         1 SG5       0.101700
     31 H3          18.1630     2.4060    11.2660 h1         1 SG5       0.099700
     32 H4          15.8890     2.6790    13.2930 h1         1 SG5       0.113700
     33 H5          18.5800     1.2140    13.3790 h1         1 SG5       0.078700
     34 HO1         18.2250    -0.6180    10.5630 ho         1 SG5       0.440000
     35 H2D         17.3120     1.6840     7.3180 hc         1 SG5       0.073200
     36 H2DA        16.5020     0.1480     7.2140 hc         1 SG5       0.073200
     37 H2E         15.8950     1.5830     5.2800 hc         1 SG5       0.046033
     38 H2EA        14.4560     1.2820     6.2460 hc         1 SG5       0.046033
     39 H2EB        15.2830     2.8370     6.3510 hc         1 SG5       0.046033
     40 H3D         15.7340     5.2300     9.0220 hc         1 SG5       0.078700
     41 H3DA        15.8930     6.0400    10.5540 hc         1 SG5       0.078700
     42 H3E         16.6570     7.5180     8.7090 hc         1 SG5       0.043367
     43 H3EA        18.0200     7.1520     9.7590 hc         1 SG5       0.043367
     44 H3EB        17.8590     6.3380     8.2040 hc         1 SG5       0.043367
     45 H4D         17.4590     6.5720    15.0020 hc         1 SG5       0.074700
     46 H4DA        18.8050     5.4370    14.9810 hc         1 SG5       0.074700
     47 H4E         19.2170     7.3540    13.4430 hc         1 SG5       0.045033
     48 H4EA        19.1390     5.8520    12.5280 hc         1 SG5       0.045033
     49 H4EB        17.7670     6.9640    12.5250 hc         1 SG5       0.045033
     50 H61         17.7930     0.2950    15.5180 h1         1 SG5       0.071200
     51 H62         18.2080     2.0180    15.5430 h1         1 SG5       0.071200
     52 HN5F        16.2540    -0.0870    18.5350 hn         1 SG5       0.430300
     53 HN5A        15.2000    -0.4910    17.2950 hn         1 SG5       0.430300
@<TRIPOS>BOND
     1     1     2 1   
     2     1     3 1   
     3     1     7 1   
     4     1    29 1   
     5     2     6 1   
     6     3     4 1   
     7     3     8 1   
     8     3    30 1   
     9     4     5 1   
    10     4    13 1   
    11     4    31 1   
    12     5     6 1   
    13     5    18 1   
    14     5    32 1   
    15     6    23 1   
    16     6    33 1   
    17     7    34 1   
    18     8     9 1   
    19     9    10 2   
    20     9    11 1   
    21    11    12 1   
    22    11    35 1   
    23    11    36 1   
    24    12    37 1   
    25    12    38 1   
    26    12    39 1   
    27    13    14 1   
    28    14    15 2   
    29    14    16 1   
    30    16    17 1   
    31    16    40 1   
    32    16    41 1   
    33    17    42 1   
    34    17    43 1   
    35    17    44 1   
    36    18    19 1   
    37    19    20 2   
    38    19    21 1   
    39    21    22 1   
    40    21    45 1   
    41    21    46 1   
    42    22    47 1   
    43    22    48 1   
    44    22    49 1   
    45    23    24 1   
    46    23    50 1   
    47    23    51 1   
    48    24    25 1   
    49    25    26 2   
    50    25    27 2   
    51    25    28 1   
    52    28    52 1   
    53    28    53 1   
@<TRIPOS>SUBSTRUCTURE
     1 SG5         1 TEMP              0 ****  ****    0 ROOT
