@<TRIPOS>MOLECULE
SG6
   34    34     1     0     0
SMALL
No Charge or Current Charge


@<TRIPOS>ATOM
      1 C1          16.6150    -0.8910    11.4950 c6         1 SG6       0.401300
      2 O5          16.6180    -0.6720    12.9180 os         1 SG6      -0.423000
      3 C2          16.3110     0.4440    10.7380 c6         1 SG6       0.103300
      4 C3          17.2880     1.5740    11.1870 c6         1 SG6       0.131300
      5 C4          17.2850     1.7330    12.7370 c6         1 SG6       0.120300
      6 C5          17.5530     0.3330    13.4000 c6         1 SG6       0.157300
      7 O1          17.8880    -1.4170    11.1160 oh         1 SG6      -0.753000
      8 O2          16.3850     0.2780     9.3020 oh         1 SG6      -0.735000
      9 O3          16.9220     2.8100    10.5420 oh         1 SG6      -0.712000
     10 O4          16.0420     2.3590    13.1530 os         1 SG6      -0.424100
     11 C4B         14.5680     3.6340    14.5400 c3         1 SG6      -0.154100
     12 C4C         15.9840     3.1510    14.2710 c          1 SG6       0.612100
     13 O4D         16.9580     3.5110    14.9170 o          1 SG6      -0.501000
     14 C6          17.5430     0.2950    14.9610 c3         1 SG6       0.210600
     15 O6          16.2050     0.4650    15.4730 os         1 SG6      -0.552700
     16 S5C         16.0180     0.3840    17.0880 s6         1 SG6       1.398800
     17 O5D         15.0380     1.3740    17.5190 o          1 SG6      -0.555500
     18 O5E         17.2960     0.1770    17.7670 o          1 SG6      -0.555500
     19 N5F         15.2320    -1.0210    17.0780 n8         1 SG6      -1.049100
     20 H1          15.8240    -1.6190    11.2480 h2         1 SG6       0.091700
     21 H2          15.2910     0.7460    11.0250 h1         1 SG6       0.083700
     22 H3          18.3060     1.2900    10.8810 h1         1 SG6       0.046700
     23 H4          18.1190     2.4020    12.9920 h1         1 SG6       0.079700
     24 H5          18.5660     0.0240    13.1050 h1         1 SG6       0.061700
     25 HO1         17.8820    -1.3360    10.1330 ho         1 SG6       0.538000
     26 HO2         16.4820     1.1960     8.9440 ho         1 SG6       0.531000
     27 HO3         16.2520     3.2320    11.1320 ho         1 SG6       0.514000
     28 H4B         14.5130     4.3290    15.3850 hc         1 SG6       0.074367
     29 H4BA        14.1610     4.0710    13.6220 hc         1 SG6       0.074367
     30 H4BB        13.9250     2.7600    14.6880 hc         1 SG6       0.074367
     31 H61         17.9570    -0.6740    15.2720 h1         1 SG6       0.069700
     32 H62         18.2150     1.0810    15.3340 h1         1 SG6       0.069700
     33 HN5F        14.3360    -0.6930    17.4260 hn         1 SG6       0.484500
     34 HN5A        15.0950    -1.0780    16.0720 hn         1 SG6       0.484500
@<TRIPOS>BOND
     1     1     2 1   
     2     1     3 1   
     3     1     7 1   
     4     1    20 1   
     5     2     6 1   
     6     3     4 1   
     7     3     8 1   
     8     3    21 1   
     9     4     5 1   
    10     4     9 1   
    11     4    22 1   
    12     5     6 1   
    13     5    10 1   
    14     5    23 1   
    15     6    14 1   
    16     6    24 1   
    17     7    25 1   
    18     8    26 1   
    19     9    27 1   
    20    10    12 1   
    21    11    12 1   
    22    11    28 1   
    23    11    29 1   
    24    11    30 1   
    25    12    13 2   
    26    14    15 1   
    27    14    31 1   
    28    14    32 1   
    29    15    16 1   
    30    16    17 2   
    31    16    18 2   
    32    16    19 1   
    33    19    33 1   
    34    19    34 1   
@<TRIPOS>SUBSTRUCTURE
     1 SG6         1 TEMP              0 ****  ****    0 ROOT
