@<TRIPOS>MOLECULE
SG6
   34    34     1     0     0
SMALL
bcc


@<TRIPOS>ATOM
      1 C1          16.4510    -0.7260    11.5050 c6         1 SG6       0.354900
      2 O5          16.4310    -0.5670    12.8900 os         1 SG6      -0.376600
      3 C2          16.3060     0.6220    10.7860 c6         1 SG6       0.080100
      4 C3          17.3250     1.6250    11.3130 c6         1 SG6       0.108100
      5 C4          17.2430     1.7110    12.8350 c6         1 SG6       0.097100
      6 C5          17.4130     0.3080    13.4060 c6         1 SG6       0.134100
      7 O1          17.6330    -1.3750    11.1420 oh         1 SG6      -0.630800
      8 O2          16.4830     0.3660     9.4140 oh         1 SG6      -0.612800
      9 O3          17.0730     2.8550    10.6860 oh         1 SG6      -0.589800
     10 O4          15.9630     2.2390    13.1680 os         1 SG6      -0.400900
     11 C4B         14.4160     3.5600    14.3090 c3         1 SG6      -0.154100
     12 C4C         15.8540     3.2060    14.0780 c          1 SG6       0.661100
     13 O4D         16.7920     3.7150    14.6350 o          1 SG6      -0.550000
     14 C6          17.4150     0.2040    14.9130 c3         1 SG6       0.187400
     15 O6          16.1550     0.6520    15.4390 os         1 SG6      -0.529500
     16 S5C         15.8760     0.4610    16.9970 s6         1 SG6       1.540400
     17 O5D         14.6680     1.2200    17.2160 o          1 SG6      -0.626300
     18 O5E         17.0620     0.7580    17.7670 o          1 SG6      -0.626300
     19 N5F         15.6560    -1.1630    17.0680 n8         1 SG6      -0.938700
     20 H1          15.5780    -1.3530    11.2810 h2         1 SG6       0.091700
     21 H2          15.2940     1.0000    10.9870 h1         1 SG6       0.083700
     22 H3          18.3320     1.2580    11.0710 h1         1 SG6       0.046700
     23 H4          18.0410     2.3550    13.2140 h1         1 SG6       0.079700
     24 H5          18.4220    -0.0210    13.1190 h1         1 SG6       0.061700
     25 HO1         17.8340    -1.1560    10.2240 ho         1 SG6       0.439000
     26 HO2         16.5390     1.2090     8.9500 ho         1 SG6       0.432000
     27 HO3         17.8660     3.3980    10.7310 ho         1 SG6       0.415000
     28 H4B         14.3370     4.4140    14.9760 hc         1 SG6       0.074367
     29 H4BA        13.9150     3.7880    13.3690 hc         1 SG6       0.074367
     30 H4BB        13.8960     2.7130    14.7580 hc         1 SG6       0.074367
     31 H61         17.5910    -0.8360    15.2010 h1         1 SG6       0.069700
     32 H62         18.2250     0.8190    15.3070 h1         1 SG6       0.069700
     33 HN5F        15.8330    -1.5400    17.9930 hn         1 SG6       0.429300
     34 HN5A        14.7540    -1.4660    16.7150 hn         1 SG6       0.429300
@<TRIPOS>BOND
     1     1     2 1   
     2     1     3 1   
     3     1     7 1   
     4     1    20 1   
     5     2     6 1   
     6     3     4 1   
     7     3     8 1   
     8     3    21 1   
     9     4     5 1   
    10     4     9 1   
    11     4    22 1   
    12     5     6 1   
    13     5    10 1   
    14     5    23 1   
    15     6    14 1   
    16     6    24 1   
    17     7    25 1   
    18     8    26 1   
    19     9    27 1   
    20    10    12 1   
    21    11    12 1   
    22    11    28 1   
    23    11    29 1   
    24    11    30 1   
    25    12    13 2   
    26    14    15 1   
    27    14    31 1   
    28    14    32 1   
    29    15    16 1   
    30    16    17 2   
    31    16    18 2   
    32    16    19 1   
    33    19    33 1   
    34    19    34 1   
@<TRIPOS>SUBSTRUCTURE
     1 SG6         1 TEMP              0 ****  ****    0 ROOT
