@<TRIPOS>MOLECULE
SG7
   39    39     1     0     0
SMALL
No Charge or Current Charge


@<TRIPOS>ATOM
      1 C1          17.1830     2.0010    11.3560 c6         1 SG7       0.402300
      2 O5          17.0110     1.9730    12.7870 os         1 SG7      -0.416000
      3 C2          16.5280     3.2980    10.7600 c6         1 SG7       0.090300
      4 C3          17.1170     4.5640    11.4630 c6         1 SG7       0.124300
      5 C4          16.9960     4.4450    13.0180 c6         1 SG7       0.149300
      6 C5          17.6010     3.0940    13.4990 c6         1 SG7       0.169300
      7 O1          18.5870     1.9400    11.0850 oh         1 SG7      -0.688000
      8 O2          15.0860     3.2990    10.9010 oh         1 SG7      -0.696000
      9 O3          16.4420     5.7570    10.9880 os         1 SG7      -0.449100
     10 C3B         16.7180     6.2800     9.7530 c          1 SG7       0.595100
     11 C3C         15.8880     7.5240     9.4750 c3         1 SG7      -0.157100
     12 O3D         17.5330     5.8160     8.9690 o          1 SG7      -0.484000
     13 O4          17.6800     5.5420    13.6780 os         1 SG7      -0.462100
     14 C4B         18.0040     7.7580    14.5140 c3         1 SG7      -0.157100
     15 C4C         17.0540     6.7410    13.9000 c          1 SG7       0.599100
     16 O4D         15.8780     6.9700    13.6620 o          1 SG7      -0.457000
     17 C6          17.3970     2.8510    15.0240 c3         1 SG7       0.206600
     18 O6          15.9950     2.9370    15.3550 os         1 SG7      -0.549700
     19 S5C         15.5870     2.6560    16.9060 s6         1 SG7       1.400800
     20 O5D         14.5090     3.5540    17.3030 o          1 SG7      -0.554500
     21 O5E         16.7670     2.4120    17.7350 o          1 SG7      -0.554500
     22 N5F         14.8800     1.2360    16.6250 n8         1 SG7      -1.054100
     23 H1          16.6820     1.1210    10.9210 h2         1 SG7       0.086700
     24 H2          16.7860     3.3430     9.6920 h1         1 SG7       0.046700
     25 H3          18.1880     4.6440    11.2200 h1         1 SG7       0.088700
     26 H4          15.9320     4.4530    13.2990 h1         1 SG7       0.123700
     27 H5          18.6850     3.1030    13.3160 h1         1 SG7       0.070700
     28 HO1         18.6700     1.7060    10.1350 ho         1 SG7       0.469000
     29 HO2         14.8000     4.2370    10.7990 ho         1 SG7       0.517000
     30 H3C         16.1020     7.9640     8.4950 hc         1 SG7       0.073367
     31 H3CA        14.8280     7.2730     9.5880 hc         1 SG7       0.073367
     32 H3CB        16.0440     8.2400    10.2890 hc         1 SG7       0.073367
     33 H4B         17.5200     8.7190    14.7180 hc         1 SG7       0.070700
     34 H4BA        18.4490     7.3250    15.4160 hc         1 SG7       0.070700
     35 H4BB        18.8730     7.8690    13.8570 hc         1 SG7       0.070700
     36 H61         17.8050     1.8620    15.2710 h1         1 SG7       0.069200
     37 H62         17.9760     3.6050    15.5750 h1         1 SG7       0.069200
     38 HN5F        13.9330     1.4860    16.8910 hn         1 SG7       0.485000
     39 HN5A        14.8720     1.2990    15.6100 hn         1 SG7       0.485000
@<TRIPOS>BOND
     1     1     2 1   
     2     1     3 1   
     3     1     7 1   
     4     1    23 1   
     5     2     6 1   
     6     3     4 1   
     7     3     8 1   
     8     3    24 1   
     9     4     5 1   
    10     4     9 1   
    11     4    25 1   
    12     5     6 1   
    13     5    13 1   
    14     5    26 1   
    15     6    17 1   
    16     6    27 1   
    17     7    28 1   
    18     8    29 1   
    19     9    10 1   
    20    10    11 1   
    21    10    12 2   
    22    11    30 1   
    23    11    31 1   
    24    11    32 1   
    25    13    15 1   
    26    14    15 1   
    27    14    33 1   
    28    14    34 1   
    29    14    35 1   
    30    15    16 2   
    31    17    18 1   
    32    17    36 1   
    33    17    37 1   
    34    18    19 1   
    35    19    20 2   
    36    19    21 2   
    37    19    22 1   
    38    22    38 1   
    39    22    39 1   
@<TRIPOS>SUBSTRUCTURE
     1 SG7         1 TEMP              0 ****  ****    0 ROOT
