@<TRIPOS>MOLECULE
SG7
   39    39     1     0     0
SMALL
abcg2


@<TRIPOS>ATOM
      1 C1          16.9530     2.0310    11.3470 c6         1 SG7       0.402300
      2 O5          16.7990     2.0700    12.7300 os         1 SG7      -0.416000
      3 C2          16.4200     3.3110    10.6930 c6         1 SG7       0.090300
      4 C3          17.0790     4.5230    11.3530 c6         1 SG7       0.124300
      5 C4          16.8560     4.4690    12.8540 c6         1 SG7       0.149300
      6 C5          17.4350     3.1530    13.3800 c6         1 SG7       0.169300
      7 O1          18.3090     1.8390    11.0720 oh         1 SG7      -0.688000
      8 O2          15.0280     3.3080    10.8730 oh         1 SG7      -0.696000
      9 O3          16.4960     5.7360    10.8870 os         1 SG7      -0.449100
     10 C3B         17.0320     6.3520     9.8270 c          1 SG7       0.595100
     11 C3C         16.3210     7.6390     9.5420 c3         1 SG7      -0.157100
     12 O3D         17.9620     5.9100     9.2050 o          1 SG7      -0.484000
     13 O4          17.5620     5.5380    13.4690 os         1 SG7      -0.462100
     14 C4B         17.8310     7.5570    14.6120 c3         1 SG7      -0.157100
     15 C4C         16.8860     6.5470    14.0360 c          1 SG7       0.599100
     16 O4D         15.6870     6.6140    14.0750 o          1 SG7      -0.457000
     17 C6          17.2820     2.9710    14.8710 c3         1 SG7       0.206600
     18 O6          15.9030     3.1670    15.2170 os         1 SG7      -0.549700
     19 S5C         15.4490     2.9090    16.7240 s6         1 SG7       1.400800
     20 O5D         14.0930     3.4000    16.7450 o          1 SG7      -0.554500
     21 O5E         16.4280     3.4400    17.6450 o          1 SG7      -0.554500
     22 N5F         15.5570     1.2760    16.8090 n8         1 SG7      -1.054100
     23 H1          16.3470     1.1820    11.0070 h2         1 SG7       0.086700
     24 H2          16.6810     3.2930     9.6250 h1         1 SG7       0.046700
     25 H3          18.1520     4.5150    11.1420 h1         1 SG7       0.088700
     26 H4          15.7900     4.5310    13.0770 h1         1 SG7       0.123700
     27 H5          18.5180     3.1410    13.1980 h1         1 SG7       0.070700
     28 HO1         18.4370     1.7580    10.1210 ho         1 SG7       0.469000
     29 HO2         14.6400     4.0080    10.3390 ho         1 SG7       0.517000
     30 H3C         16.7500     8.1260     8.6710 hc         1 SG7       0.073367
     31 H3CA        15.2600     7.4580     9.3650 hc         1 SG7       0.073367
     32 H3CB        16.3940     8.3090    10.4000 hc         1 SG7       0.073367
     33 H4B         17.2810     8.3930    15.0310 hc         1 SG7       0.070700
     34 H4BA        18.4370     7.1010    15.3960 hc         1 SG7       0.070700
     35 H4BB        18.5150     7.9230    13.8470 hc         1 SG7       0.070700
     36 H61         17.6090     1.9670    15.1500 h1         1 SG7       0.069200
     37 H62         17.9080     3.6970    15.3930 h1         1 SG7       0.069200
     38 HN5F        15.7130     0.9440    17.7540 hn         1 SG7       0.485000
     39 HN5A        14.7830     0.7890    16.3680 hn         1 SG7       0.485000
@<TRIPOS>BOND
     1     1     2 1   
     2     1     3 1   
     3     1     7 1   
     4     1    23 1   
     5     2     6 1   
     6     3     4 1   
     7     3     8 1   
     8     3    24 1   
     9     4     5 1   
    10     4     9 1   
    11     4    25 1   
    12     5     6 1   
    13     5    13 1   
    14     5    26 1   
    15     6    17 1   
    16     6    27 1   
    17     7    28 1   
    18     8    29 1   
    19     9    10 1   
    20    10    11 1   
    21    10    12 2   
    22    11    30 1   
    23    11    31 1   
    24    11    32 1   
    25    13    15 1   
    26    14    15 1   
    27    14    33 1   
    28    14    34 1   
    29    14    35 1   
    30    15    16 2   
    31    17    18 1   
    32    17    36 1   
    33    17    37 1   
    34    18    19 1   
    35    19    20 2   
    36    19    21 2   
    37    19    22 1   
    38    22    38 1   
    39    22    39 1   
@<TRIPOS>SUBSTRUCTURE
     1 SG7         1 TEMP              0 ****  ****    0 ROOT
