@<TRIPOS>MOLECULE
SG9
  180   186     1     0     0
SMALL
abcg2


@<TRIPOS>ATOM
      1 C4          21.4390   -26.4310   -46.2440 c6         1 SG9      -0.135400
      2 C5          22.5120   -26.5240   -47.3180 c6         1 SG9       0.186300
      3 C6          23.8210   -25.9360   -46.8150 c6         1 SG9      -0.095400
      4 C7          24.2130   -26.4140   -45.4140 c6         1 SG9       0.413000
      5 C8          25.3710   -25.5750   -44.8690 c6         1 SG9      -0.076400
      6 C10         26.3300   -27.6550   -43.8860 c6         1 SG9      -0.137400
      7 C13         25.7300   -30.6620   -43.5110 c2         1 SG9      -0.105400
      8 C15         25.1830   -31.5940   -41.2020 c3         1 SG9       0.188300
      9 C17         25.0680   -32.1170   -38.7600 c          1 SG9       0.583100
     10 C20         24.4600   -35.3460   -36.6770 c6         1 SG9      -0.115400
     11 C21         25.0270   -35.9110   -35.3860 c6         1 SG9       0.175300
     12 C22         25.0620   -34.8220   -34.3130 c6         1 SG9      -0.129400
     13 C24         27.3260   -33.8710   -34.9220 c6         1 SG9      -0.167400
     14 C26         27.7480   -31.5270   -34.1830 c6         1 SG9      -0.138400
     15 C28         25.7720   -30.3140   -33.2280 c2         1 SG9      -0.216200
     16 C1          21.2370   -27.2960   -42.4740 c          1 SG9       0.616100
     17 C11         25.0720   -28.3670   -44.3500 c6         1 SG9       0.172300
     18 C12         25.3180   -29.8320   -44.7000 c3         1 SG9      -0.041200
     19 C14         24.7340   -30.7110   -42.3650 c3         1 SG9      -0.024500
     20 C16         24.3420   -31.4390   -39.9190 c3         1 SG9      -0.181700
     21 C18         24.4360   -33.3680   -38.2150 c3         1 SG9      -0.176400
     22 C19         25.1830   -34.0690   -37.0950 c6         1 SG9       0.201300
     23 C2          20.9100   -26.7010   -43.8200 c3         1 SG9      -0.136400
     24 C23         25.8170   -33.5920   -34.8110 c6         1 SG9       0.418000
     25 C25         28.1810   -32.6260   -35.1540 c6         1 SG9       0.190300
     26 C27         26.2410   -31.3260   -34.2220 c6         1 SG9       0.204500
     27 C29         25.0500   -29.2320   -33.5110 c2         1 SG9      -0.194200
     28 C3          21.9430   -26.9460   -44.9020 c6         1 SG9       0.190300
     29 C30         24.5070   -28.8100   -34.8420 c3         1 SG9      -0.052200
     30 C31         22.9970   -29.0630   -34.9480 c3         1 SG9      -0.072400
     31 C32         22.6400   -30.5420   -34.9570 c3         1 SG9      -0.075400
     32 C33         21.1400   -30.7860   -34.9560 c6         1 SG9       0.180300
     33 C34         20.7480   -32.2240   -34.6180 c6         1 SG9      -0.125700
     34 C35         19.2230   -32.3560   -34.6940 c6         1 SG9       0.170300
     35 C36         18.7150   -31.8660   -36.0420 c6         1 SG9      -0.145400
     36 C37         19.2330   -30.4540   -36.3760 c6         1 SG9       0.383000
     37 C38         18.9970   -30.1620   -37.8740 c3         1 SG9       0.208300
     38 C39         19.6430   -28.8840   -38.3890 c6         1 SG9       0.182300
     39 C40         19.5710   -28.7320   -39.9190 c6         1 SG9      -0.109700
     40 C41         20.3380   -27.4520   -40.2570 c6         1 SG9       0.178300
     41 C42         19.8050   -26.2530   -39.4860 c6         1 SG9       0.129300
     42 C43         19.7620   -26.5830   -37.9890 c6         1 SG9       0.139300
     43 C44         19.1010   -25.4770   -37.1780 c3         1 SG9      -0.031200
     44 C45         18.9130   -25.8330   -35.7270 c2         1 SG9      -0.096400
     45 C46         20.1190   -26.3060   -34.9680 c3         1 SG9      -0.074200
     46 C47         21.2370   -25.2550   -34.8970 c3         1 SG9       0.200500
     47 C48         20.7580   -24.0420   -34.1670 c2         1 SG9      -0.160200
     48 C49         20.6210   -22.8490   -34.7420 ce         1 SG9      -0.196000
     49 C50         20.1090   -21.6350   -34.1250 ce         1 SG9       0.125000
     50 C51         19.9780   -20.4770   -34.7660 c2         1 SG9      -0.310000
     51 C53         22.3360   -29.9170   -48.7690 c3         1 SG9      -0.156100
     52 C54         27.3900   -25.4340   -43.4030 c3         1 SG9      -0.122100
     53 C55         26.9230   -31.2550   -43.5110 c2         1 SG9      -0.324000
     54 C56         23.3270   -31.0660   -42.8570 c3         1 SG9      -0.076100
     55 C58         25.6980   -35.1860   -41.9610 c3         1 SG9      -0.157100
     56 C59         24.0880   -29.9790   -39.5370 c3         1 SG9      -0.090100
     57 C61         21.4330   -33.2560   -35.5050 c3         1 SG9      -0.088100
     58 C62         20.1250   -29.9440   -40.6570 c3         1 SG9      -0.084100
     59 C63         17.7300   -25.7000   -35.1360 c2         1 SG9      -0.297000
     60 C9          26.0710   -26.1660   -43.6440 c6         1 SG9       0.189000
     61 O1          22.2580   -27.8530   -42.1740 o          1 SG9      -0.481000
     62 O11         24.5900   -27.7560   -45.5380 os         1 SG9      -0.474000
     63 O15         25.0790   -32.9550   -41.6530 os         1 SG9      -0.460100
     64 O17         26.0720   -31.6160   -38.3080 o          1 SG9      -0.505100
     65 O21         24.2180   -37.0020   -35.0080 os         1 SG9      -0.456000
     66 O23         25.2510   -33.1500   -36.0290 os         1 SG9      -0.499000
     67 O25         28.2010   -32.1970   -36.4950 oh         1 SG9      -0.669000
     68 O27         25.5820   -32.5590   -33.9070 os         1 SG9      -0.448000
     69 O33         20.6360   -30.4240   -36.2300 os         1 SG9      -0.491000
     70 O35         18.5700   -31.5800   -33.6960 oh         1 SG9      -0.677000
     71 O37         18.6070   -29.4900   -35.5980 oh         1 SG9      -0.634000
     72 O38         17.6250   -30.1400   -38.1820 oh         1 SG9      -0.685000
     73 O41         20.2070   -27.1270   -41.6430 os         1 SG9      -0.455100
     74 O42         20.6490   -25.1600   -39.7520 oh         1 SG9      -0.710000
     75 O43         19.0430   -27.7680   -37.7790 os         1 SG9      -0.402000
     76 O47         22.3580   -25.7490   -34.1860 oh         1 SG9      -0.659000
     77 O5          22.7550   -27.8940   -47.6810 os         1 SG9      -0.434100
     78 O52         20.9960   -27.9440   -49.0640 o          1 SG9      -0.499000
     79 O57         26.9020   -33.6510   -40.5570 o          1 SG9      -0.483000
     80 O7          23.1270   -26.2620   -44.5350 os         1 SG9      -0.454000
     81 O9          25.2090   -25.9860   -42.5350 oh         1 SG9      -0.636000
     82 CL1         19.6470   -21.7350   -32.4470 cl         1 SG9      -0.216000
     83 H041        21.1560   -25.3780   -46.1450 hc         1 SG9       0.063200
     84 H042        20.5380   -26.9670   -46.5480 hc         1 SG9       0.063200
     85 H05         22.1950   -25.9730   -48.2060 h1         1 SG9       0.066700
     86 H062        24.6280   -26.1300   -47.5240 hc         1 SG9       0.067700
     87 H061        23.6910   -24.8510   -46.7780 hc         1 SG9       0.067700
     88 H081        26.1130   -25.4880   -45.6680 hc         1 SG9       0.062700
     89 H082        25.0260   -24.5600   -44.6520 hc         1 SG9       0.062700
     90 H101        26.7130   -28.1190   -42.9700 hc         1 SG9       0.053200
     91 H102        27.1120   -27.7760   -44.6440 hc         1 SG9       0.053200
     92 H15         26.2210   -31.3540   -40.9570 h1         1 SG9       0.083700
     93 H201        23.3960   -35.1320   -36.5320 hc         1 SG9       0.060200
     94 H202        24.5400   -36.0830   -37.4800 hc         1 SG9       0.060200
     95 H21         26.0500   -36.2740   -35.5720 h1         1 SG9       0.036700
     96 H222        24.0340   -34.5320   -34.0710 hc         1 SG9       0.067700
     97 H221        25.5270   -35.1850   -33.3940 hc         1 SG9       0.067700
     98 H241        27.5440   -34.6140   -35.6920 hc         1 SG9       0.059200
     99 H242        27.6360   -34.3210   -33.9750 hc         1 SG9       0.059200
    100 H262        28.0510   -31.8040   -33.1680 hc         1 SG9       0.059700
    101 H261        28.2550   -30.5900   -34.4260 hc         1 SG9       0.059700
    102 H28         26.0690   -30.4870   -32.1970 ha         1 SG9       0.176000
    103 H11         24.3070   -28.2970   -43.5710 h1         1 SG9       0.078700
    104 H121        24.4030   -30.2360   -45.1450 hc         1 SG9       0.057200
    105 H122        26.0910   -29.8930   -45.4700 hc         1 SG9       0.057200
    106 H14         24.6910   -29.6930   -41.9610 hc         1 SG9       0.078700
    107 H16         23.3800   -31.9370   -40.0730 hc         1 SG9       0.065700
    108 H181        23.4290   -33.0900   -37.8760 hc         1 SG9       0.071200
    109 H182        24.2590   -34.0610   -39.0440 hc         1 SG9       0.071200
    110 H19         26.1930   -34.3270   -37.4480 h1         1 SG9       0.059700
    111 H022        20.7490   -25.6260   -43.6870 hc         1 SG9       0.080700
    112 H021        19.9490   -27.1060   -44.1480 hc         1 SG9       0.080700
    113 H25         29.2170   -32.8920   -34.9240 h1         1 SG9       0.065700
    114 H27         25.9510   -31.0040   -35.2260 h1         1 SG9       0.064700
    115 H29         24.7820   -28.5800   -32.6830 ha         1 SG9       0.171000
    116 H03         22.1250   -28.0250   -44.9770 h1         1 SG9       0.059700
    117 H302        25.0110   -29.3140   -35.6690 hc         1 SG9       0.050700
    118 H301        24.7050   -27.7430   -34.9780 hc         1 SG9       0.050700
    119 H311        22.4880   -28.5830   -34.1040 hc         1 SG9       0.041700
    120 H312        22.6210   -28.5890   -35.8590 hc         1 SG9       0.041700
    121 H321        23.1050   -31.0330   -35.8170 hc         1 SG9       0.062200
    122 H322        23.0640   -31.0250   -34.0720 hc         1 SG9       0.062200
    123 H33         20.7080   -30.1290   -34.1870 h1         1 SG9       0.039700
    124 H34         21.0550   -32.4180   -33.5820 hc         1 SG9       0.055700
    125 H351        18.9530   -33.4140   -34.5740 h1         1 SG9       0.044700
    126 H362        17.6220   -31.8870   -36.0560 hc         1 SG9       0.065200
    127 H361        19.0480   -32.5670   -36.8110 hc         1 SG9       0.065200
    128 H381        19.5030   -30.9800   -38.4000 h1         1 SG9       0.037700
    129 H39         20.7090   -28.9380   -38.1120 h1         1 SG9       0.051700
    130 H40         18.5220   -28.5950   -40.2030 hc         1 SG9       0.084700
    131 H41         21.3960   -27.5940   -40.0090 h1         1 SG9       0.076700
    132 H421        18.7760   -26.0570   -39.8220 h1         1 SG9       0.056700
    133 H43         20.8040   -26.7110   -37.6460 h1         1 SG9       0.039700
    134 H441        19.7270   -24.5810   -37.2520 hc         1 SG9       0.049200
    135 H442        18.1350   -25.2210   -37.6220 hc         1 SG9       0.049200
    136 H461        19.8330   -26.5850   -33.9510 hc         1 SG9       0.061200
    137 H462        20.5040   -27.2190   -35.4390 hc         1 SG9       0.061200
    138 H471        21.5340   -24.9670   -35.9160 h1         1 SG9       0.033700
    139 H48         20.4790   -24.1910   -33.1280 ha         1 SG9       0.194000
    140 H49         20.9030   -22.7220   -35.7840 ha         1 SG9       0.174000
    141 H511        19.5930   -19.5870   -34.2910 ha         1 SG9       0.179000
    142 H512        20.2600   -20.4090   -35.8080 ha         1 SG9       0.179000
    143 H533        21.7410   -30.3560   -49.5650 hc         1 SG9       0.068700
    144 H532        23.3930   -29.9940   -49.0220 hc         1 SG9       0.068700
    145 H531        22.1810   -30.4950   -47.8560 hc         1 SG9       0.068700
    146 H543        27.9010   -25.8380   -42.5250 hc         1 SG9       0.041367
    147 H541        28.0640   -25.5390   -44.2530 hc         1 SG9       0.041367
    148 H542        27.2210   -24.3690   -43.2340 hc         1 SG9       0.041367
    149 H551        27.3100   -31.8520   -42.6980 ha         1 SG9       0.166500
    150 H552        27.5880   -31.1420   -44.3580 ha         1 SG9       0.166500
    151 H563        22.6280   -31.1680   -42.0270 hc         1 SG9       0.038033
    152 H562        22.9280   -30.2810   -43.4970 hc         1 SG9       0.038033
    153 H561        23.3230   -31.9990   -43.4200 hc         1 SG9       0.038033
    154 H582        26.3350   -35.9610   -41.5460 hc         1 SG9       0.069367
    155 H583        24.6530   -35.4710   -41.8400 hc         1 SG9       0.069367
    156 H581        25.8890   -35.1100   -43.0330 hc         1 SG9       0.069367
    157 H592        23.6180   -29.9180   -38.5540 hc         1 SG9       0.051367
    158 H593        25.0140   -29.4060   -39.4960 hc         1 SG9       0.051367
    159 H591        23.4190   -29.4910   -40.2450 hc         1 SG9       0.051367
    160 H601        24.1250   -38.6930   -33.9000 h1         1 SG9       0.030367
    161 H602        25.7680   -38.2430   -34.3880 h1         1 SG9       0.030367
    162 H603        24.9540   -37.3630   -33.0840 h1         1 SG9       0.030367
    163 H612        21.1070   -34.2660   -35.2500 hc         1 SG9       0.042033
    164 H613        21.2240   -33.0960   -36.5630 hc         1 SG9       0.042033
    165 H611        22.5140   -33.2210   -35.3810 hc         1 SG9       0.042033
    166 H621        19.4940   -30.8180   -40.5010 hc         1 SG9       0.036700
    167 H623        20.1680   -29.7840   -41.7330 hc         1 SG9       0.036700
    168 H622        21.1340   -30.1900   -40.3190 hc         1 SG9       0.036700
    169 H631        17.5930   -25.9280   -34.0860 ha         1 SG9       0.163500
    170 H632        16.8560   -25.3600   -35.6770 ha         1 SG9       0.163500
    171 H025        27.3050   -32.0960   -36.8460 ho         1 SG9       0.476000
    172 H352        19.0040   -31.7290   -32.8490 ho         1 SG9       0.452000
    173 H37         18.4490   -29.8650   -34.7210 ho         1 SG9       0.465000
    174 H382        17.3250   -31.0420   -38.3180 ho         1 SG9       0.494000
    175 H422        20.1650   -24.3470   -39.5880 ho         1 SG9       0.507000
    176 H472        22.6950   -26.5140   -34.6630 ho         1 SG9       0.444000
    177 H09         25.6120   -26.4140   -41.7730 ho         1 SG9       0.438000
    178 C52         21.9390   -28.4880   -48.5420 c          1 SG9       0.593100
    179 C57         25.9790   -33.8690   -41.3030 c          1 SG9       0.587100
    180 C60         24.8000   -37.8520   -34.0510 c3         1 SG9       0.146900
@<TRIPOS>BOND
     1     1     2 1   
     2     1    28 1   
     3     1    83 1   
     4     1    84 1   
     5     2     3 1   
     6     2    77 1   
     7     2    85 1   
     8     3     4 1   
     9     3    86 1   
    10     3    87 1   
    11     4     5 1   
    12     4    62 1   
    13     4    80 1   
    14     5    60 1   
    15     5    88 1   
    16     5    89 1   
    17     6    17 1   
    18     6    60 1   
    19     6    90 1   
    20     6    91 1   
    21     7    18 1   
    22     7    19 1   
    23     7    53 2   
    24     8    19 1   
    25     8    20 1   
    26     8    63 1   
    27     8    92 1   
    28     9    20 1   
    29     9    21 1   
    30     9    64 2   
    31    10    11 1   
    32    10    22 1   
    33    10    93 1   
    34    10    94 1   
    35    11    12 1   
    36    11    65 1   
    37    11    95 1   
    38    12    24 1   
    39    12    96 1   
    40    12    97 1   
    41    13    24 1   
    42    13    25 1   
    43    13    98 1   
    44    13    99 1   
    45    14    25 1   
    46    14    26 1   
    47    14   100 1   
    48    14   101 1   
    49    15    26 1   
    50    15    27 2   
    51    15   102 1   
    52    16    23 1   
    53    16    61 2   
    54    16    73 1   
    55    17    18 1   
    56    17    62 1   
    57    17   103 1   
    58    18   104 1   
    59    18   105 1   
    60    19    54 1   
    61    19   106 1   
    62    20    56 1   
    63    20   107 1   
    64    21    22 1   
    65    21   108 1   
    66    21   109 1   
    67    22    66 1   
    68    22   110 1   
    69    23    28 1   
    70    23   111 1   
    71    23   112 1   
    72    24    66 1   
    73    24    68 1   
    74    25    67 1   
    75    25   113 1   
    76    26    68 1   
    77    26   114 1   
    78    27    29 1   
    79    27   115 1   
    80    28    80 1   
    81    28   116 1   
    82    29    30 1   
    83    29   117 1   
    84    29   118 1   
    85    30    31 1   
    86    30   119 1   
    87    30   120 1   
    88    31    32 1   
    89    31   121 1   
    90    31   122 1   
    91    32    33 1   
    92    32    69 1   
    93    32   123 1   
    94    33    34 1   
    95    33    57 1   
    96    33   124 1   
    97    34    35 1   
    98    34    70 1   
    99    34   125 1   
   100    35    36 1   
   101    35   126 1   
   102    35   127 1   
   103    36    37 1   
   104    36    69 1   
   105    36    71 1   
   106    37    38 1   
   107    37    72 1   
   108    37   128 1   
   109    38    39 1   
   110    38    75 1   
   111    38   129 1   
   112    39    40 1   
   113    39    58 1   
   114    39   130 1   
   115    40    41 1   
   116    40    73 1   
   117    40   131 1   
   118    41    42 1   
   119    41    74 1   
   120    41   132 1   
   121    42    43 1   
   122    42    75 1   
   123    42   133 1   
   124    43    44 1   
   125    43   134 1   
   126    43   135 1   
   127    44    45 1   
   128    44    59 2   
   129    45    46 1   
   130    45   136 1   
   131    45   137 1   
   132    46    47 1   
   133    46    76 1   
   134    46   138 1   
   135    47    48 2   
   136    47   139 1   
   137    48    49 1   
   138    48   140 1   
   139    49    50 2   
   140    49    82 1   
   141    50   141 1   
   142    50   142 1   
   143    51   143 1   
   144    51   144 1   
   145    51   145 1   
   146    51   178 1   
   147    52    60 1   
   148    52   146 1   
   149    52   147 1   
   150    52   148 1   
   151    53   149 1   
   152    53   150 1   
   153    54   151 1   
   154    54   152 1   
   155    54   153 1   
   156    55   154 1   
   157    55   155 1   
   158    55   156 1   
   159    55   179 1   
   160    56   157 1   
   161    56   158 1   
   162    56   159 1   
   163    57   163 1   
   164    57   164 1   
   165    57   165 1   
   166    58   166 1   
   167    58   167 1   
   168    58   168 1   
   169    59   169 1   
   170    59   170 1   
   171    60    81 1   
   172    63   179 1   
   173    65   180 1   
   174    67   171 1   
   175    70   172 1   
   176    71   173 1   
   177    72   174 1   
   178    74   175 1   
   179    76   176 1   
   180    77   178 1   
   181    78   178 2   
   182    79   179 2   
   183    81   177 1   
   184   160   180 1   
   185   161   180 1   
   186   162   180 1   
@<TRIPOS>SUBSTRUCTURE
     1 SG9         1 TEMP              0 ****  ****    0 ROOT
