@<TRIPOS>MOLECULE
SG9
  180   186     1     0     0
SMALL
No Charge or Current Charge


@<TRIPOS>ATOM
      1 C4          21.2540   -26.3360   -46.3950 c6         1 SG9      -0.135400
      2 C5          22.6030   -25.7190   -46.8450 c6         1 SG9       0.186300
      3 C6          23.3580   -25.1230   -45.6270 c6         1 SG9      -0.095400
      4 C7          23.4480   -26.1030   -44.4190 c6         1 SG9       0.413000
      5 C8          24.0290   -25.3510   -43.1800 c6         1 SG9      -0.076400
      6 C10         25.2760   -27.4760   -42.5380 c6         1 SG9      -0.137400
      7 C13         25.6730   -30.4960   -43.3130 c2         1 SG9      -0.105400
      8 C15         25.0420   -31.7980   -41.1300 c3         1 SG9       0.188300
      9 C17         24.7000   -32.4720   -38.7070 c          1 SG9       0.583100
     10 C20         24.1960   -35.6650   -36.3830 c6         1 SG9      -0.115400
     11 C21         24.8150   -36.1190   -35.0410 c6         1 SG9       0.175300
     12 C22         24.9360   -34.9140   -34.0680 c6         1 SG9      -0.129400
     13 C24         27.2120   -34.0490   -34.8940 c6         1 SG9      -0.167400
     14 C26         27.7050   -31.5860   -34.4810 c6         1 SG9      -0.138400
     15 C28         25.8250   -30.1860   -33.5310 c2         1 SG9      -0.216200
     16 C1          20.4210   -28.5240   -43.2820 c          1 SG9       0.616100
     17 C11         24.5050   -28.1690   -43.6830 c6         1 SG9       0.172300
     18 C12         25.2420   -29.3960   -44.2910 c3         1 SG9      -0.041200
     19 C14         24.5410   -31.0660   -42.4270 c3         1 SG9      -0.024500
     20 C16         24.0020   -31.9310   -39.9680 c3         1 SG9      -0.181700
     21 C18         24.1950   -33.8230   -38.1700 c3         1 SG9      -0.176400
     22 C19         24.9460   -34.4410   -36.9610 c6         1 SG9       0.201300
     23 C2          20.1790   -27.9160   -44.6570 c3         1 SG9      -0.136400
     24 C23         25.6910   -33.7320   -34.7240 c6         1 SG9       0.418000
     25 C25         28.0520   -32.8280   -35.3280 c6         1 SG9       0.190300
     26 C27         26.1790   -31.3800   -34.4010 c6         1 SG9       0.204500
     27 C29         25.1550   -29.0890   -33.9370 c2         1 SG9      -0.194200
     28 C3          21.4830   -27.3020   -45.2150 c6         1 SG9       0.190300
     29 C30         24.6070   -28.7930   -35.3280 c3         1 SG9      -0.052200
     30 C31         23.0890   -29.0560   -35.4320 c3         1 SG9      -0.072400
     31 C32         22.6700   -30.5230   -35.1640 c3         1 SG9      -0.075400
     32 C33         21.1330   -30.7080   -35.0480 c6         1 SG9       0.180300
     33 C34         20.6770   -32.0850   -34.4820 c6         1 SG9      -0.125700
     34 C35         19.1220   -32.1190   -34.4470 c6         1 SG9       0.170300
     35 C36         18.5300   -31.7760   -35.8360 c6         1 SG9      -0.145400
     36 C37         19.1100   -30.4480   -36.3950 c6         1 SG9       0.383000
     37 C38         18.6510   -30.1900   -37.8910 c3         1 SG9       0.208300
     38 C39         19.5450   -29.1840   -38.7150 c6         1 SG9       0.182300
     39 C40         19.1500   -29.0620   -40.2290 c6         1 SG9      -0.109700
     40 C41         20.1030   -28.0190   -40.8990 c6         1 SG9       0.178300
     41 C42         20.0380   -26.6550   -40.1390 c6         1 SG9       0.129300
     42 C43         20.3790   -26.8990   -38.6390 c6         1 SG9       0.139300
     43 C44         20.2540   -25.6230   -37.7540 c3         1 SG9      -0.031200
     44 C45         20.8700   -25.7600   -36.3650 c2         1 SG9      -0.096400
     45 C46         22.3870   -25.5980   -36.3190 c3         1 SG9      -0.074200
     46 C47         22.8730   -24.1410   -36.5110 c3         1 SG9       0.200500
     47 C48         22.2770   -23.2030   -35.4850 c2         1 SG9      -0.160200
     48 C49         21.2100   -22.3940   -35.6860 ce         1 SG9      -0.196000
     49 C50         20.6200   -21.4900   -34.6880 ce         1 SG9       0.125000
     50 C51         19.5560   -20.7100   -34.9520 c2         1 SG9      -0.310000
     51 C53         24.1300   -28.1910   -49.2390 c3         1 SG9      -0.156100
     52 C54         25.2860   -25.4790   -40.9610 c3         1 SG9      -0.122100
     53 C55         26.9570   -30.8960   -43.2710 c2         1 SG9      -0.324000
     54 C56         23.5350   -31.9110   -43.2530 c3         1 SG9      -0.076100
     55 C58         26.6600   -35.1750   -41.5190 c3         1 SG9      -0.157100
     56 C59         23.2500   -30.6230   -39.5910 c3         1 SG9      -0.090100
     57 C61         21.2680   -33.2940   -35.2680 c3         1 SG9      -0.088100
     58 C62         19.1300   -30.4440   -40.9560 c3         1 SG9      -0.084100
     59 C63         20.1360   -26.0060   -35.2690 c2         1 SG9      -0.297000
     60 C9          24.4580   -26.2780   -42.0000 c6         1 SG9       0.189000
     61 O1          21.1210   -29.5080   -43.0920 o          1 SG9      -0.481000
     62 O11         24.3090   -27.2170   -44.7470 os         1 SG9      -0.474000
     63 O15         25.3990   -33.1480   -41.5180 os         1 SG9      -0.460100
     64 O17         25.5910   -31.8310   -38.1640 o          1 SG9      -0.505100
     65 O21         24.0050   -37.1760   -34.4860 os         1 SG9      -0.456000
     66 O23         25.0320   -33.4100   -35.9650 os         1 SG9      -0.499000
     67 O25         27.8780   -32.5600   -36.7180 oh         1 SG9      -0.669000
     68 O27         25.5610   -32.5750   -33.8750 os         1 SG9      -0.448000
     69 O33         20.5530   -30.5030   -36.3570 os         1 SG9      -0.491000
     70 O35         18.6310   -31.1790   -33.4820 oh         1 SG9      -0.677000
     71 O37         18.6740   -29.3840   -35.5560 oh         1 SG9      -0.634000
     72 O38         17.2480   -29.8370   -37.9430 oh         1 SG9      -0.685000
     73 O41         19.8140   -27.7920   -42.2950 os         1 SG9      -0.455100
     74 O42         20.8960   -25.6540   -40.7400 oh         1 SG9      -0.710000
     75 O43         19.4610   -27.8770   -38.1020 os         1 SG9      -0.402000
     76 O47         24.2960   -24.0980   -36.3970 oh         1 SG9      -0.659000
     77 O5          23.4300   -26.6930   -47.5150 os         1 SG9      -0.434100
     78 O52         22.2210   -26.7130   -49.4680 o          1 SG9      -0.499000
     79 O57         27.3360   -33.2100   -40.2800 o          1 SG9      -0.483000
     80 O7          22.1210   -26.5880   -44.1360 os         1 SG9      -0.454000
     81 O9          23.3200   -26.7770   -41.2950 oh         1 SG9      -0.636000
     82 Cl1         21.3350   -21.4270   -33.0740 cl         1 SG9      -0.216000
     83 H041        20.5710   -25.5320   -46.0880 hc         1 SG9       0.063200
     84 H042        20.7620   -26.8590   -47.2250 hc         1 SG9       0.063200
     85 H05         22.4060   -24.9010   -47.5550 h1         1 SG9       0.066700
     86 H062        24.3660   -24.8150   -45.9350 hc         1 SG9       0.067700
     87 H061        22.8440   -24.2070   -45.3080 hc         1 SG9       0.067700
     88 H081        24.9030   -24.7720   -43.5070 hc         1 SG9       0.062700
     89 H082        23.2990   -24.6130   -42.8230 hc         1 SG9       0.062700
     90 H101        25.4880   -28.1880   -41.7300 hc         1 SG9       0.053200
     91 H102        26.2510   -27.1310   -42.9120 hc         1 SG9       0.053200
     92 H15         25.9080   -31.2330   -40.7560 h1         1 SG9       0.083700
     93 H201        23.1370   -35.4180   -36.2310 hc         1 SG9       0.060200
     94 H202        24.2240   -36.4920   -37.1040 hc         1 SG9       0.060200
     95 H21         25.8170   -36.5260   -35.2410 h1         1 SG9       0.036700
     96 H222        23.9340   -34.5830   -33.7670 hc         1 SG9       0.067700
     97 H221        25.4570   -35.2100   -33.1500 hc         1 SG9       0.067700
     98 H241        27.3800   -34.8830   -35.5870 hc         1 SG9       0.059200
     99 H242        27.6000   -34.3970   -33.9280 hc         1 SG9       0.059200
    100 H262        28.1080   -31.7130   -33.4670 hc         1 SG9       0.059700
    101 H261        28.1870   -30.6920   -34.8990 hc         1 SG9       0.059700
    102 H28         26.1520   -30.2650   -32.4930 ha         1 SG9       0.176000
    103 H11         23.5240   -28.5040   -43.3220 h1         1 SG9       0.078700
    104 H121        24.6000   -29.8360   -45.0620 hc         1 SG9       0.057200
    105 H122        26.1200   -29.0300   -44.8360 hc         1 SG9       0.057200
    106 H14         23.9780   -30.2060   -42.0640 hc         1 SG9       0.078700
    107 H16         23.2430   -32.6610   -40.2740 hc         1 SG9       0.065700
    108 H181        23.1280   -33.6890   -37.9610 hc         1 SG9       0.071200
    109 H182        24.1390   -34.5180   -39.0160 hc         1 SG9       0.071200
    110 H19         25.9580   -34.7280   -37.2840 h1         1 SG9       0.059700
    111 H022        19.4030   -27.1470   -44.5790 hc         1 SG9       0.080700
    112 H021        19.8340   -28.7060   -45.3320 hc         1 SG9       0.080700
    113 H25         29.1120   -33.0680   -35.1500 h1         1 SG9       0.065700
    114 H27         25.7990   -31.2110   -35.4150 h1         1 SG9       0.064700
    115 H29         24.9540   -28.2930   -33.2170 ha         1 SG9       0.171000
    116 H03         22.1330   -28.1320   -45.5310 h1         1 SG9       0.059700
    117 H302        25.1230   -29.3660   -36.1070 hc         1 SG9       0.050700
    118 H301        24.7970   -27.7410   -35.5730 hc         1 SG9       0.050700
    119 H311        22.5740   -28.4010   -34.7180 hc         1 SG9       0.041700
    120 H312        22.7430   -28.7630   -36.4310 hc         1 SG9       0.041700
    121 H321        23.0790   -31.1630   -35.9550 hc         1 SG9       0.062200
    122 H322        23.1290   -30.8590   -34.2270 hc         1 SG9       0.062200
    123 H33         20.7810   -29.9200   -34.3670 h1         1 SG9       0.039700
    124 H34         21.0530   -32.1840   -33.4540 hc         1 SG9       0.055700
    125 H351        18.7920   -33.1320   -34.1690 h1         1 SG9       0.044700
    126 H362        17.4360   -31.7160   -35.7720 hc         1 SG9       0.065200
    127 H361        18.7440   -32.5930   -36.5370 hc         1 SG9       0.065200
    128 H381        18.7780   -31.1620   -38.3810 h1         1 SG9       0.037700
    129 H39         20.5860   -29.5320   -38.6540 h1         1 SG9       0.051700
    130 H40         18.1240   -28.6750   -40.2890 hc         1 SG9       0.084700
    131 H41         21.1360   -28.3890   -40.8160 h1         1 SG9       0.076700
    132 H421        18.9970   -26.3000   -40.1810 h1         1 SG9       0.056700
    133 H43         21.4040   -27.2890   -38.5580 h1         1 SG9       0.039700
    134 H441        20.6970   -24.7630   -38.2660 hc         1 SG9       0.049200
    135 H442        19.1910   -25.3710   -37.6600 hc         1 SG9       0.049200
    136 H461        22.7620   -25.9510   -35.3510 hc         1 SG9       0.061200
    137 H462        22.8590   -26.2390   -37.0730 hc         1 SG9       0.061200
    138 H471        22.5800   -23.8010   -37.5130 h1         1 SG9       0.033700
    139 H48         22.7890   -23.2360   -34.5230 ha         1 SG9       0.194000
    140 H49         20.7210   -22.3960   -36.6610 ha         1 SG9       0.174000
    141 H511        19.1350   -20.0490   -34.1960 ha         1 SG9       0.179000
    142 H512        19.0740   -20.7090   -35.9290 ha         1 SG9       0.179000
    143 H533        23.9310   -28.5390   -50.2590 hc         1 SG9       0.068700
    144 H532        25.1430   -27.7890   -49.1360 hc         1 SG9       0.068700
    145 H531        24.1330   -29.0150   -48.5180 hc         1 SG9       0.068700
    146 H543        25.5980   -26.1110   -40.1200 hc         1 SG9       0.041367
    147 H541        26.1950   -25.0620   -41.4110 hc         1 SG9       0.041367
    148 H542        24.7080   -24.6420   -40.5510 hc         1 SG9       0.041367
    149 H551        27.3170   -31.6740   -42.6030 ha         1 SG9       0.166500
    150 H552        27.7130   -30.4540   -43.9210 ha         1 SG9       0.166500
    151 H563        22.7290   -32.2940   -42.6170 hc         1 SG9       0.038033
    152 H562        23.0730   -31.3090   -44.0430 hc         1 SG9       0.038033
    153 H561        24.0350   -32.7630   -43.7290 hc         1 SG9       0.038033
    154 H582        27.5680   -35.6670   -41.1520 hc         1 SG9       0.069367
    155 H583        25.7560   -35.7340   -41.2560 hc         1 SG9       0.069367
    156 H581        26.6160   -35.1630   -42.6130 hc         1 SG9       0.069367
    157 H592        22.6670   -30.7680   -38.6730 hc         1 SG9       0.051367
    158 H593        23.9540   -29.7990   -39.4170 hc         1 SG9       0.051367
    159 H591        22.5460   -30.3260   -40.3770 hc         1 SG9       0.051367
    160 H601        23.8470   -38.6960   -33.0600 h1         1 SG9       0.030367
    161 H602        25.5110   -38.2450   -33.4910 h1         1 SG9       0.030367
    162 H603        24.5320   -37.1780   -32.4510 h1         1 SG9       0.030367
    163 H612        20.8770   -34.2450   -34.8880 hc         1 SG9       0.042033
    164 H613        21.0400   -33.2420   -36.3390 hc         1 SG9       0.042033
    165 H611        22.3580   -33.3330   -35.1670 hc         1 SG9       0.042033
    166 H621        18.4020   -31.1300   -40.5100 hc         1 SG9       0.036700
    167 H623        18.8300   -30.3410   -42.0040 hc         1 SG9       0.036700
    168 H622        20.1120   -30.9300   -40.9250 hc         1 SG9       0.036700
    169 H631        20.5900   -26.1030   -34.2830 ha         1 SG9       0.163500
    170 H632        19.0550   -26.1320   -35.3220 ha         1 SG9       0.163500
    171 H025        26.9120   -32.4160   -36.8730 ho         1 SG9       0.476000
    172 H352        18.7520   -31.5940   -32.5980 ho         1 SG9       0.452000
    173 H37         18.6370   -29.8260   -34.6720 ho         1 SG9       0.465000
    174 H382        17.1610   -29.1090   -37.2850 ho         1 SG9       0.494000
    175 H422        21.7200   -26.1130   -41.0620 ho         1 SG9       0.507000
    176 H472        24.6590   -24.6110   -37.1510 ho         1 SG9       0.444000
    177 H09         23.6850   -27.3270   -40.5700 ho         1 SG9       0.438000
    178 C52         23.1340   -27.1380   -48.7740 c          1 SG9       0.593100
    179 C57         26.5200   -33.7490   -41.0090 c          1 SG9       0.587100
    180 C60         24.5010   -37.8520   -33.3160 c3         1 SG9       0.146900
@<TRIPOS>BOND
     1     1     2 1   
     2     1    28 1   
     3     1    83 1   
     4     1    84 1   
     5     2     3 1   
     6     2    77 1   
     7     2    85 1   
     8     3     4 1   
     9     3    86 1   
    10     3    87 1   
    11     4     5 1   
    12     4    62 1   
    13     4    80 1   
    14     5    60 1   
    15     5    88 1   
    16     5    89 1   
    17     6    17 1   
    18     6    60 1   
    19     6    90 1   
    20     6    91 1   
    21     7    18 1   
    22     7    19 1   
    23     7    53 2   
    24     8    19 1   
    25     8    20 1   
    26     8    63 1   
    27     8    92 1   
    28     9    20 1   
    29     9    21 1   
    30     9    64 2   
    31    10    11 1   
    32    10    22 1   
    33    10    93 1   
    34    10    94 1   
    35    11    12 1   
    36    11    65 1   
    37    11    95 1   
    38    12    24 1   
    39    12    96 1   
    40    12    97 1   
    41    13    24 1   
    42    13    25 1   
    43    13    98 1   
    44    13    99 1   
    45    14    25 1   
    46    14    26 1   
    47    14   100 1   
    48    14   101 1   
    49    15    26 1   
    50    15    27 2   
    51    15   102 1   
    52    16    23 1   
    53    16    61 2   
    54    16    73 1   
    55    17    18 1   
    56    17    62 1   
    57    17   103 1   
    58    18   104 1   
    59    18   105 1   
    60    19    54 1   
    61    19   106 1   
    62    20    56 1   
    63    20   107 1   
    64    21    22 1   
    65    21   108 1   
    66    21   109 1   
    67    22    66 1   
    68    22   110 1   
    69    23    28 1   
    70    23   111 1   
    71    23   112 1   
    72    24    66 1   
    73    24    68 1   
    74    25    67 1   
    75    25   113 1   
    76    26    68 1   
    77    26   114 1   
    78    27    29 1   
    79    27   115 1   
    80    28    80 1   
    81    28   116 1   
    82    29    30 1   
    83    29   117 1   
    84    29   118 1   
    85    30    31 1   
    86    30   119 1   
    87    30   120 1   
    88    31    32 1   
    89    31   121 1   
    90    31   122 1   
    91    32    33 1   
    92    32    69 1   
    93    32   123 1   
    94    33    34 1   
    95    33    57 1   
    96    33   124 1   
    97    34    35 1   
    98    34    70 1   
    99    34   125 1   
   100    35    36 1   
   101    35   126 1   
   102    35   127 1   
   103    36    37 1   
   104    36    69 1   
   105    36    71 1   
   106    37    38 1   
   107    37    72 1   
   108    37   128 1   
   109    38    39 1   
   110    38    75 1   
   111    38   129 1   
   112    39    40 1   
   113    39    58 1   
   114    39   130 1   
   115    40    41 1   
   116    40    73 1   
   117    40   131 1   
   118    41    42 1   
   119    41    74 1   
   120    41   132 1   
   121    42    43 1   
   122    42    75 1   
   123    42   133 1   
   124    43    44 1   
   125    43   134 1   
   126    43   135 1   
   127    44    45 1   
   128    44    59 2   
   129    45    46 1   
   130    45   136 1   
   131    45   137 1   
   132    46    47 1   
   133    46    76 1   
   134    46   138 1   
   135    47    48 2   
   136    47   139 1   
   137    48    49 1   
   138    48   140 1   
   139    49    50 2   
   140    49    82 1   
   141    50   141 1   
   142    50   142 1   
   143    51   143 1   
   144    51   144 1   
   145    51   145 1   
   146    51   178 1   
   147    52    60 1   
   148    52   146 1   
   149    52   147 1   
   150    52   148 1   
   151    53   149 1   
   152    53   150 1   
   153    54   151 1   
   154    54   152 1   
   155    54   153 1   
   156    55   154 1   
   157    55   155 1   
   158    55   156 1   
   159    55   179 1   
   160    56   157 1   
   161    56   158 1   
   162    56   159 1   
   163    57   163 1   
   164    57   164 1   
   165    57   165 1   
   166    58   166 1   
   167    58   167 1   
   168    58   168 1   
   169    59   169 1   
   170    59   170 1   
   171    60    81 1   
   172    63   179 1   
   173    65   180 1   
   174    67   171 1   
   175    70   172 1   
   176    71   173 1   
   177    72   174 1   
   178    74   175 1   
   179    76   176 1   
   180    77   178 1   
   181    78   178 2   
   182    79   179 2   
   183    81   177 1   
   184   160   180 1   
   185   161   180 1   
   186   162   180 1   
@<TRIPOS>SUBSTRUCTURE
     1 SG9         1 TEMP              0 ****  ****    0 ROOT
