@<TRIPOS>MOLECULE
SGA
   27    27     1     0     0
SMALL
abcg2


@<TRIPOS>ATOM
      1 C1           2.8300     6.2370     4.6550 c6         1 SGA       0.396300
      2 C2           1.9750     7.1570     5.5360 c6         1 SGA       0.122300
      3 C3           0.4980     6.9070     5.1990 c6         1 SGA       0.222300
      4 C4           0.2290     6.9930     3.7000 c6         1 SGA       0.139300
      5 C5           1.1950     6.0360     2.9960 c6         1 SGA       0.135300
      6 C6           1.0190     5.9720     1.4930 c3         1 SGA       0.165600
      7 O1           4.1550     6.5650     4.8430 oh         1 SGA      -0.615000
      8 O2           2.2760     6.8190     6.8620 oh         1 SGA      -0.765000
      9 O3          -0.4780     7.6860     5.8990 os         1 SGA      -0.608700
     10 O4           0.3690     8.3220     3.2790 oh         1 SGA      -0.675000
     11 O5           2.5260     6.3910     3.2920 os         1 SGA      -0.481000
     12 O6           1.2160     7.2510     0.9160 oh         1 SGA      -0.707000
     13 S           -0.2410     9.0820     6.7240 s6         1 SGA       1.507300
     14 O1S          0.6960     8.7410     7.8160 o          1 SGA      -0.698533
     15 O2S         -1.5990     9.3400     7.1870 o          1 SGA      -0.698533
     16 O3S          0.2970    10.0730     5.7970 o          1 SGA      -0.698533
     17 H1           2.6240     5.1910     4.9500 h2         1 SGA       0.007700
     18 H2           2.2450     8.1960     5.3030 h1         1 SGA       0.093700
     19 H3           0.2850     5.8740     5.5020 h1         1 SGA       0.032700
     20 H4          -0.7910     6.6170     3.5180 h1         1 SGA       0.032700
     21 H5           0.9790     5.0190     3.3640 h1         1 SGA       0.028700
     22 H61          1.7260     5.2420     1.0820 h1         1 SGA       0.022700
     23 H62          0.0100     5.5940     1.2940 h1         1 SGA       0.022700
     24 HO1          4.7080     5.8320     4.5530 ho         1 SGA       0.434000
     25 HO2          1.8140     7.4710     7.4210 ho         1 SGA       0.578000
     26 HO4          0.5480     8.3030     2.3270 ho         1 SGA       0.510000
     27 HO6          0.8240     7.2570     0.0380 ho         1 SGA       0.496000
@<TRIPOS>BOND
     1     1     2 1   
     2     1     7 1   
     3     1    11 1   
     4     1    17 1   
     5     2     3 1   
     6     2     8 1   
     7     2    18 1   
     8     3     4 1   
     9     3     9 1   
    10     3    19 1   
    11     4     5 1   
    12     4    10 1   
    13     4    20 1   
    14     5     6 1   
    15     5    11 1   
    16     5    21 1   
    17     6    12 1   
    18     6    22 1   
    19     6    23 1   
    20     7    24 1   
    21     8    25 1   
    22     9    13 1   
    23    10    26 1   
    24    12    27 1   
    25    13    14 1   
    26    13    15 1   
    27    13    16 1   
@<TRIPOS>SUBSTRUCTURE
     1 SGA         1 TEMP              0 ****  ****    0 ROOT
