@<TRIPOS>MOLECULE
SGA
   27    27     1     0     0
SMALL
No Charge or Current Charge


@<TRIPOS>ATOM
      1 C1           2.8440     6.2500     4.6750 c6         1 SGA       0.396300
      2 C2           1.9840     7.2350     5.5570 c6         1 SGA       0.122300
      3 C3           0.4400     7.0510     5.2230 c6         1 SGA       0.222300
      4 C4           0.1870     6.9850     3.6750 c6         1 SGA       0.139300
      5 C5           1.1460     5.9510     3.0170 c6         1 SGA       0.135300
      6 C6           0.9610     5.8690     1.4630 c3         1 SGA       0.165600
      7 O1           4.2240     6.5640     4.7200 oh         1 SGA      -0.615000
      8 O2           2.2970     7.0170     6.9680 oh         1 SGA      -0.765000
      9 O3          -0.5360     7.9820     5.8040 os         1 SGA      -0.608700
     10 O4           0.3630     8.2740     3.0500 oh         1 SGA      -0.675000
     11 O5           2.5110     6.3340     3.2890 os         1 SGA      -0.481000
     12 O6           1.2520     7.1130     0.7900 oh         1 SGA      -0.707000
     13 S           -0.2270     9.0450     7.0180 s6         1 SGA       1.507300
     14 O1S          0.3460     8.2040     8.0780 o          1 SGA      -0.698533
     15 O2S         -1.5450     9.6100     7.3340 o          1 SGA      -0.698533
     16 O3S          0.7210     9.9980     6.4330 o          1 SGA      -0.698533
     17 H1           2.6930     5.2150     5.0170 h2         1 SGA       0.007700
     18 H2           2.2690     8.2540     5.2550 h1         1 SGA       0.093700
     19 H3           0.1740     6.0590     5.6150 h1         1 SGA       0.032700
     20 H4          -0.8440     6.6400     3.5120 h1         1 SGA       0.032700
     21 H5           0.9620     4.9520     3.4380 h1         1 SGA       0.028700
     22 H61          1.6210     5.0760     1.0870 h1         1 SGA       0.022700
     23 H62         -0.0710     5.5590     1.2530 h1         1 SGA       0.022700
     24 HO1          4.4860     6.5310     3.7780 ho         1 SGA       0.434000
     25 HO2          1.5580     7.4500     7.5010 ho         1 SGA       0.578000
     26 HO4          0.7650     8.0490     2.1640 ho         1 SGA       0.510000
     27 HO6          1.3540     6.9000    -0.1690 ho         1 SGA       0.496000
@<TRIPOS>BOND
     1     1     2 1   
     2     1     7 1   
     3     1    11 1   
     4     1    17 1   
     5     2     3 1   
     6     2     8 1   
     7     2    18 1   
     8     3     4 1   
     9     3     9 1   
    10     3    19 1   
    11     4     5 1   
    12     4    10 1   
    13     4    20 1   
    14     5     6 1   
    15     5    11 1   
    16     5    21 1   
    17     6    12 1   
    18     6    22 1   
    19     6    23 1   
    20     7    24 1   
    21     8    25 1   
    22     9    13 1   
    23    10    26 1   
    24    12    27 1   
    25    13    14 1   
    26    13    15 1   
    27    13    16 1   
@<TRIPOS>SUBSTRUCTURE
     1 SGA         1 TEMP              0 ****  ****    0 ROOT
