@<TRIPOS>MOLECULE
SGB
   29    28     1     0     0
SMALL
bcc


@<TRIPOS>ATOM
      1 N           25.4960    13.1170    14.5110 n8         1 SGB      -0.867800
      2 CA          26.5080    13.0550    13.4610 c3         1 SGB       0.008500
      3 C           27.5740    12.0110    13.8790 c          1 SGB       0.949600
      4 O           27.5250    10.8950    13.3310 o          1 SGB      -0.828800
      5 CB          27.1310    14.4180    13.2180 c3         1 SGB       0.173400
      6 OG          28.0850    14.3130    12.1500 os         1 SGB      -0.548200
      7 O1          30.2730    15.3930    13.1100 o          1 SGB      -0.800300
      8 P1          29.2650    15.3910    12.0190 p5         1 SGB       1.423300
      9 C1          29.9130    15.0250    10.3890 c3         1 SGB      -0.306300
     10 O2          28.4530    16.7710    11.8640 os         1 SGB      -0.612200
     11 C2          28.7990    17.9790    12.5740 c3         1 SGB       0.217100
     12 C4          29.9870    18.6540    11.9170 c3         1 SGB      -0.108600
     13 C3          27.5630    18.8540    12.5710 c3         1 SGB      -0.108600
     14 OXT         28.3700    12.3860    14.7640 o          1 SGB      -0.828800
     15 HN1         25.9290    13.4180    15.3760 hn         1 SGB       0.312800
     16 HN2         24.7980    13.8160    14.2840 hn         1 SGB       0.312800
     17 HA          26.0140    12.7220    12.5430 h1         1 SGB       0.057700
     18 HBC1        27.6110    14.7630    14.1380 h1         1 SGB       0.015700
     19 HBC2        26.3630    15.1460    12.9380 h1         1 SGB       0.015700
     20 H1C1        29.1440    15.0980     9.6220 hc         1 SGB       0.075033
     21 H1C2        30.3360    14.0210    10.3710 hc         1 SGB       0.075033
     22 H1C3        30.7080    15.7340    10.1560 hc         1 SGB       0.075033
     23 H2          29.0510    17.7230    13.6060 h1         1 SGB       0.058700
     24 H4C1        29.7690    18.9070    10.8790 hc         1 SGB       0.040367
     25 H4C2        30.8750    18.0200    11.9420 hc         1 SGB       0.040367
     26 H4C3        30.2280    19.5760    12.4460 hc         1 SGB       0.040367
     27 H3C1        26.7170    18.3490    13.0370 hc         1 SGB       0.040367
     28 H3C2        27.2830    19.1390    11.5550 hc         1 SGB       0.040367
     29 H3C3        27.7600    19.7670    13.1330 hc         1 SGB       0.040367
@<TRIPOS>BOND
     1     1     2 1   
     2     1    15 1   
     3     1    16 1   
     4     2     3 1   
     5     2     5 1   
     6     2    17 1   
     7     3     4 1   
     8     3    14 1   
     9     5     6 1   
    10     5    18 1   
    11     5    19 1   
    12     6     8 1   
    13     7     8 2   
    14     8     9 1   
    15     8    10 1   
    16     9    20 1   
    17     9    21 1   
    18     9    22 1   
    19    10    11 1   
    20    11    12 1   
    21    11    13 1   
    22    11    23 1   
    23    12    24 1   
    24    12    25 1   
    25    12    26 1   
    26    13    27 1   
    27    13    28 1   
    28    13    29 1   
@<TRIPOS>SUBSTRUCTURE
     1 SGB         1 TEMP              0 ****  ****    0 ROOT
