@<TRIPOS>MOLECULE
SGB
   29    28     1     0     0
SMALL
No Charge or Current Charge


@<TRIPOS>ATOM
      1 N           26.1930    13.1150    15.1220 n8         1 SGB      -0.978200
      2 CA          27.1040    13.2660    13.9130 c3         1 SGB       0.008500
      3 C           28.5920    12.7810    14.1040 c          1 SGB       0.739000
      4 O           29.0060    11.8830    13.3810 o          1 SGB      -0.723500
      5 CB          27.0710    14.7170    13.3510 c3         1 SGB       0.196600
      6 OG          27.4750    14.7050    11.9750 os         1 SGB      -0.571400
      7 O1          30.1020    14.9830    12.3220 o          1 SGB      -0.571000
      8 P1          28.9000    15.3060    11.5050 p5         1 SGB       1.351800
      9 C1          28.9900    14.6800     9.7970 c3         1 SGB      -0.464100
     10 O2          28.5560    16.8650    11.2380 os         1 SGB      -0.635400
     11 C2          28.3490    17.8350    12.2760 c3         1 SGB       0.240300
     12 C4          29.6080    17.9590    13.1650 c3         1 SGB      -0.108600
     13 C3          28.0050    19.1550    11.5640 c3         1 SGB      -0.108600
     14 OXT         29.2220    13.2110    15.0630 o          1 SGB      -0.723500
     15 HN1         26.5980    13.6310    15.9140 hn         1 SGB       0.368000
     16 HN2         25.2970    13.5840    14.9440 hn         1 SGB       0.368000
     17 HA          26.6730    12.6240    13.1320 h1         1 SGB       0.057700
     18 HBC1        27.7130    15.3680    13.9590 h1         1 SGB       0.015700
     19 HBC2        26.0470    15.1080    13.4160 h1         1 SGB       0.015700
     20 H1C1        28.0750    14.9600     9.2660 hc         1 SGB       0.075033
     21 H1C2        29.0890    13.5900     9.8230 hc         1 SGB       0.075033
     22 H1C3        29.8600    15.1230     9.3020 hc         1 SGB       0.075033
     23 H2          27.4940    17.5550    12.9070 h1         1 SGB       0.058700
     24 H4C1        30.5140    18.0480    12.5540 hc         1 SGB       0.040367
     25 H4C2        29.7100    17.0980    13.8340 hc         1 SGB       0.040367
     26 H4C3        29.5370    18.8510    13.7990 hc         1 SGB       0.040367
     27 H3C1        27.1130    19.0310    10.9370 hc         1 SGB       0.040367
     28 H3C2        28.8350    19.4830    10.9270 hc         1 SGB       0.040367
     29 H3C3        27.7980    19.9450    12.2950 hc         1 SGB       0.040367
@<TRIPOS>BOND
     1     1     2 1   
     2     1    15 1   
     3     1    16 1   
     4     2     3 1   
     5     2     5 1   
     6     2    17 1   
     7     3     4 1   
     8     3    14 1   
     9     5     6 1   
    10     5    18 1   
    11     5    19 1   
    12     6     8 1   
    13     7     8 2   
    14     8     9 1   
    15     8    10 1   
    16     9    20 1   
    17     9    21 1   
    18     9    22 1   
    19    10    11 1   
    20    11    12 1   
    21    11    13 1   
    22    11    23 1   
    23    12    24 1   
    24    12    25 1   
    25    12    26 1   
    26    13    27 1   
    27    13    28 1   
    28    13    29 1   
@<TRIPOS>SUBSTRUCTURE
     1 SGB         1 TEMP              0 ****  ****    0 ROOT
