@<TRIPOS>MOLECULE
SGE
   40    45     1     0     0
SMALL
No Charge or Current Charge


@<TRIPOS>ATOM
      1 NAA          0.2680     1.3110    -0.2290 nh         1 SGE      -0.754400
      2 CAB          2.4710     0.3140     0.2340 ca         1 SGE      -0.100300
      3 CAC         -0.3320     0.0290    -0.0920 ca         1 SGE       0.263000
      4 CAD          0.5010    -1.1290    -0.0240 ca         1 SGE      -0.068000
      5 CAE         -1.7510    -0.1100    -0.0720 ca         1 SGE      -0.025000
      6 CAF          1.9230    -0.9830     0.0320 ca         1 SGE      -0.025000
      7 CAG          1.5690     1.5230     0.4350 c6         1 SGE       0.226100
      8 CAH          3.8650     0.4600     0.2990 ca         1 SGE       0.060100
      9 CAI         -2.6110     1.0230    -0.0520 ca         1 SGE      -0.079000
     10 CAJ         -2.3310    -1.4080    -0.0520 ca         1 SGE      -0.020000
     11 CAK         -3.9950     0.8190    -0.0450 ca         1 SGE       0.051100
     12 CAL         -4.5370    -0.4320    -0.0450 ca         1 SGE       0.073100
     13 CAM         -0.1140    -2.4060    -0.0110 ca         1 SGE      -0.083000
     14 CAN         -3.7350    -1.5760    -0.0430 ca         1 SGE      -0.110000
     15 CAO          2.8240    -2.0850    -0.0880 ca         1 SGE      -0.097000
     16 CAP          4.7070    -0.6050     0.1760 ca         1 SGE       0.056100
     17 OAQ          4.5370     1.6220     0.5160 os         1 SGE      -0.346100
     18 OAR         -4.9410     1.7920    -0.0160 os         1 SGE      -0.344100
     19 OAS         -5.8930    -0.4120    -0.0180 os         1 SGE      -0.344100
     20 OAT          6.0130    -0.2560     0.2900 os         1 SGE      -0.342100
     21 CAU          5.9450     1.2100     0.4010 c5         1 SGE       0.372600
     22 CAV         -6.1960     1.0270    -0.0930 c5         1 SGE       0.375600
     23 CAW         -1.5080    -2.5390    -0.0340 ca         1 SGE      -0.109000
     24 CAX          4.2210    -1.8990    -0.0170 ca         1 SGE      -0.096000
     25 CAY          0.0510     2.0930    -1.4690 c3         1 SGE       0.161100
     26 HAG          2.0710     2.4200     0.0400 h1         1 SGE       0.073700
     27 HAGA         1.4230     1.6850     1.5130 h1         1 SGE       0.073700
     28 HAI         -2.2250     2.0370    -0.0260 ha         1 SGE       0.152000
     29 HAM          0.4610    -3.3220     0.0460 ha         1 SGE       0.115000
     30 HAN         -4.1870    -2.5640    -0.0280 ha         1 SGE       0.135000
     31 HAO          2.4760    -3.0970    -0.2600 ha         1 SGE       0.122000
     32 HAU          6.3740     1.6560    -0.5040 h2         1 SGE       0.065200
     33 HAUA         6.5020     1.5410     1.2850 h2         1 SGE       0.065200
     34 HAV         -6.8530     1.3100     0.7380 h2         1 SGE       0.065200
     35 HAVA        -6.6860     1.2390    -1.0500 h2         1 SGE       0.065200
     36 HAW         -1.9480    -3.5340    -0.0150 ha         1 SGE       0.117000
     37 HAX          4.9050    -2.7390    -0.1100 ha         1 SGE       0.135000
     38 HAY         -0.7550     1.6560    -2.0730 h1         1 SGE       0.040033
     39 HAYA        -0.2280     3.1270    -1.2250 h1         1 SGE       0.040033
     40 HAYB         0.9620     2.1090    -2.0830 h1         1 SGE       0.040033
@<TRIPOS>BOND
     1     1     3 1   
     2     1     7 1   
     3     1    25 1   
     4     2     6 ar  
     5     2     7 1   
     6     2     8 ar  
     7     3     4 ar  
     8     3     5 ar  
     9     4     6 1   
    10     4    13 ar  
    11     5     9 ar  
    12     5    10 ar  
    13     6    15 ar  
    14     7    26 1   
    15     7    27 1   
    16     8    16 ar  
    17     8    17 1   
    18     9    11 ar  
    19     9    28 1   
    20    10    14 ar  
    21    10    23 ar  
    22    11    12 ar  
    23    11    18 1   
    24    12    14 ar  
    25    12    19 1   
    26    13    23 ar  
    27    13    29 1   
    28    14    30 1   
    29    15    24 ar  
    30    15    31 1   
    31    16    20 1   
    32    16    24 ar  
    33    17    21 1   
    34    18    22 1   
    35    19    22 1   
    36    20    21 1   
    37    21    32 1   
    38    21    33 1   
    39    22    34 1   
    40    22    35 1   
    41    23    36 1   
    42    24    37 1   
    43    25    38 1   
    44    25    39 1   
    45    25    40 1   
@<TRIPOS>SUBSTRUCTURE
     1 SGE         1 TEMP              0 ****  ****    0 ROOT
