@<TRIPOS>MOLECULE
SGE
   40    45     1     0     0
SMALL
bcc


@<TRIPOS>ATOM
      1 NAA          0.2050     1.3210    -0.1150 nh         1 SGE      -0.616000
      2 CAB          2.4180     0.3780     0.3020 ca         1 SGE      -0.100300
      3 CAC         -0.3590     0.0280    -0.0050 ca         1 SGE       0.124600
      4 CAD          0.4600    -1.0890     0.0800 ca         1 SGE      -0.068000
      5 CAE         -1.7710    -0.0990    -0.0020 ca         1 SGE      -0.025000
      6 CAF          1.9170    -0.9100     0.0150 ca         1 SGE      -0.025000
      7 CAG          1.4270     1.4490     0.6560 c6         1 SGE       0.226100
      8 CAH          3.7750     0.5470     0.2290 ca         1 SGE       0.060100
      9 CAI         -2.6100     1.0520    -0.0650 ca         1 SGE      -0.097000
     10 CAJ         -2.3480    -1.3960     0.0770 ca         1 SGE      -0.020000
     11 CAK         -3.9490     0.8460    -0.0750 ca         1 SGE       0.051100
     12 CAL         -4.5200    -0.4390    -0.0150 ca         1 SGE       0.073100
     13 CAM         -0.1350    -2.3640     0.2010 ca         1 SGE      -0.101000
     14 CAN         -3.7620    -1.5590     0.0670 ca         1 SGE      -0.128000
     15 CAO          2.7880    -1.9380    -0.3350 ca         1 SGE      -0.115000
     16 CAP          4.6350    -0.4860    -0.1060 ca         1 SGE       0.056100
     17 OAQ          4.4940     1.6800     0.4390 os         1 SGE      -0.322900
     18 OAR         -4.9410     1.7630    -0.1100 os         1 SGE      -0.320900
     19 OAS         -5.8640    -0.3230    -0.0200 os         1 SGE      -0.320900
     20 OAT          5.9090    -0.0240    -0.1170 os         1 SGE      -0.318900
     21 CAU          5.8570     1.2780     0.4520 c5         1 SGE       0.326200
     22 CAV         -6.1620     1.0500    -0.2340 c5         1 SGE       0.329200
     23 CAW         -1.4930    -2.5140     0.1870 ca         1 SGE      -0.127000
     24 CAX          4.1710    -1.7450    -0.3980 ca         1 SGE      -0.114000
     25 CAY          0.3400     1.7710    -1.4950 c3         1 SGE       0.161100
     26 HAG          1.8380     2.4460     0.4910 h1         1 SGE       0.073700
     27 HAGA         1.1770     1.3820     1.7200 h1         1 SGE       0.073700
     28 HAI         -2.1830     2.0450    -0.0860 ha         1 SGE       0.170000
     29 HAM          0.4910    -3.2410     0.3070 ha         1 SGE       0.133000
     30 HAN         -4.2010    -2.5460     0.1310 ha         1 SGE       0.153000
     31 HAO          2.4010    -2.9170    -0.5860 ha         1 SGE       0.140000
     32 HAU          6.4520     1.9670    -0.1460 h2         1 SGE       0.065200
     33 HAUA         6.2250     1.2470     1.4840 h2         1 SGE       0.065200
     34 HAV         -6.8700     1.3950     0.5210 h2         1 SGE       0.065200
     35 HAVA        -6.5740     1.1890    -1.2380 h2         1 SGE       0.065200
     36 HAW         -1.9280    -3.5020     0.2750 ha         1 SGE       0.135000
     37 HAX          4.8370    -2.5510    -0.6740 ha         1 SGE       0.153000
     38 HAY         -0.6260     1.7260    -1.9970 h1         1 SGE       0.040033
     39 HAYA         0.6700     2.8100    -1.5050 h1         1 SGE       0.040033
     40 HAYB         1.0520     1.1770    -2.0810 h1         1 SGE       0.040033
@<TRIPOS>BOND
     1     1     3 1   
     2     1     7 1   
     3     1    25 1   
     4     2     6 ar  
     5     2     7 1   
     6     2     8 ar  
     7     3     4 ar  
     8     3     5 ar  
     9     4     6 1   
    10     4    13 ar  
    11     5     9 ar  
    12     5    10 ar  
    13     6    15 ar  
    14     7    26 1   
    15     7    27 1   
    16     8    16 ar  
    17     8    17 1   
    18     9    11 ar  
    19     9    28 1   
    20    10    14 ar  
    21    10    23 ar  
    22    11    12 ar  
    23    11    18 1   
    24    12    14 ar  
    25    12    19 1   
    26    13    23 ar  
    27    13    29 1   
    28    14    30 1   
    29    15    24 ar  
    30    15    31 1   
    31    16    20 1   
    32    16    24 ar  
    33    17    21 1   
    34    18    22 1   
    35    19    22 1   
    36    20    21 1   
    37    21    32 1   
    38    21    33 1   
    39    22    34 1   
    40    22    35 1   
    41    23    36 1   
    42    24    37 1   
    43    25    38 1   
    44    25    39 1   
    45    25    40 1   
@<TRIPOS>SUBSTRUCTURE
     1 SGE         1 TEMP              0 ****  ****    0 ROOT
