@<TRIPOS>MOLECULE
SGF
   82    82     1     0     0
SMALL
No Charge or Current Charge


@<TRIPOS>ATOM
      1 C17         17.9700     1.6990     0.0870 c3         1 SGF      -0.088100
      2 C16         16.6100     1.6580     0.8100 c3         1 SGF      -0.075400
      3 C15         15.4780     1.0770    -0.0640 c3         1 SGF      -0.075400
      4 C14         14.1150     1.0360     0.6610 c3         1 SGF      -0.075400
      5 C13         12.9820     0.4560    -0.2130 c3         1 SGF      -0.074400
      6 C12         11.6190     0.4150     0.5120 c3         1 SGF      -0.074400
      7 C11         10.4860    -0.1660    -0.3620 c3         1 SGF      -0.073400
      8 C10          9.1230    -0.2070     0.3630 c3         1 SGF      -0.075400
      9 C9           7.9910    -0.7880    -0.5110 c3         1 SGF      -0.073400
     10 C8           6.6280    -0.8300     0.2140 c3         1 SGF      -0.075400
     11 C7           5.4950    -1.4110    -0.6600 c3         1 SGF      -0.073400
     12 C6           4.1320    -1.4530     0.0660 c3         1 SGF      -0.074400
     13 C5           2.9990    -2.0330    -0.8060 c3         1 SGF      -0.038200
     14 C4           1.6730    -2.0610    -0.0730 c2         1 SGF      -0.227200
     15 C3           0.5820    -1.3550    -0.4180 c2         1 SGF      -0.235200
     16 C2          -0.7480    -1.3850     0.3060 c3         1 SGF       0.206500
     17 O1          -0.5750    -0.6470     1.5180 oh         1 SGF      -0.656000
     18 C1          -1.9340    -0.7890    -0.5300 c3         1 SGF       0.126500
     19 C           -3.2800    -0.8310     0.2530 c3         1 SGF       0.132600
     20 O           -4.3320    -0.3320    -0.6030 os         1 SGF      -0.469000
     21 C43         -5.6470    -0.2810    -0.0210 c6         1 SGF       0.354300
     22 C44         -6.6450     0.4230    -0.9960 c6         1 SGF       0.145300
     23 O3          -6.1750     1.7430    -1.3700 oh         1 SGF      -0.682000
     24 O6          -6.0990    -1.6190     0.2510 os         1 SGF      -0.472000
     25 C47         -7.3790    -1.6510     0.9300 c6         1 SGF       0.181300
     26 C48         -7.7090    -3.1290     1.3280 c3         1 SGF       0.167600
     27 O7          -6.7240    -3.7220     2.2020 oh         1 SGF      -0.723000
     28 C46         -8.4950    -1.0000     0.0450 c6         1 SGF       0.119300
     29 O5          -8.7890    -1.7560    -1.1530 oh         1 SGF      -0.731000
     30 C45         -8.0790     0.4550    -0.3560 c6         1 SGF       0.205300
     31 O4          -9.0430     0.9660    -1.3120 os         1 SGF      -0.591700
     32 S          -10.1540     2.0550    -0.7830 s6         1 SGF       1.494300
     33 O10        -11.0320     2.2510    -1.9450 o          1 SGF      -0.703200
     34 O9         -10.7930     1.3820     0.3560 o          1 SGF      -0.703200
     35 O8          -9.3590     3.2340    -0.4140 o          1 SGF      -0.703200
     36 N           -2.0870    -1.4390    -1.8680 n8         1 SGF      -1.006200
     37 H1          18.7410     2.1170     0.7450 hc         1 SGF       0.030367
     38 H2          18.2830     0.6900    -0.2100 hc         1 SGF       0.030367
     39 H3          17.9130     2.3230    -0.8130 hc         1 SGF       0.030367
     40 H4          16.7100     1.0570     1.7230 hc         1 SGF       0.037200
     41 H5          16.3430     2.6740     1.1240 hc         1 SGF       0.037200
     42 H6          15.3820     1.6800    -0.9760 hc         1 SGF       0.036200
     43 H7          15.7490     0.0620    -0.3780 hc         1 SGF       0.036200
     44 H8          14.2100     0.4340     1.5730 hc         1 SGF       0.037200
     45 H9          13.8430     2.0520     0.9750 hc         1 SGF       0.037200
     46 H10         12.8860     1.0580    -1.1250 hc         1 SGF       0.036200
     47 H11         13.2530    -0.5600    -0.5270 hc         1 SGF       0.036200
     48 H12         11.7140    -0.1880     1.4240 hc         1 SGF       0.038200
     49 H13         11.3470     1.4300     0.8260 hc         1 SGF       0.038200
     50 H14         10.3900     0.4360    -1.2740 hc         1 SGF       0.035700
     51 H15         10.7580    -1.1820    -0.6760 hc         1 SGF       0.035700
     52 H16          9.2190    -0.8100     1.2750 hc         1 SGF       0.038700
     53 H17          8.8510     0.8080     0.6770 hc         1 SGF       0.038700
     54 H18          7.8950    -0.1860    -1.4230 hc         1 SGF       0.035700
     55 H19          8.2630    -1.8040    -0.8250 hc         1 SGF       0.035700
     56 H20          6.7240    -1.4320     1.1270 hc         1 SGF       0.039700
     57 H21          6.3560     0.1860     0.5280 hc         1 SGF       0.039700
     58 H22          5.3990    -0.8090    -1.5720 hc         1 SGF       0.035200
     59 H23          5.7670    -2.4270    -0.9740 hc         1 SGF       0.035200
     60 H24          4.2270    -2.0540     0.9780 hc         1 SGF       0.041200
     61 H25          3.8580    -0.4370     0.3780 hc         1 SGF       0.041200
     62 H26          2.9140    -1.4380    -1.7230 hc         1 SGF       0.040700
     63 H27          3.2680    -3.0500    -1.1190 hc         1 SGF       0.040700
     64 H28          1.6510    -2.7330     0.7890 ha         1 SGF       0.168000
     65 H29          0.6030    -0.6930    -1.2860 ha         1 SGF       0.193000
     66 H30         -0.9900    -2.4320     0.5390 h1         1 SGF       0.077700
     67 H31          0.3600    -0.7850     1.7820 ho         1 SGF       0.442000
     68 H32         -1.7090     0.2710    -0.7130 h1         1 SGF       0.064700
     69 H33         -3.4880    -1.8640     0.5620 h1         1 SGF       0.047200
     70 H34         -3.1970    -0.2160     1.1590 h1         1 SGF       0.047200
     71 H35         -5.5990     0.2880     0.9200 h2         1 SGF       0.024700
     72 H36         -6.6990    -0.2040    -1.8980 h1         1 SGF       0.068700
     73 H37         -5.2180     1.6350    -1.5800 ho         1 SGF       0.494000
     74 H38         -7.2920    -1.0730     1.8630 h1         1 SGF       0.046700
     75 H39         -8.6940    -3.1380     1.8130 h1         1 SGF       0.038200
     76 H40         -7.7970    -3.7220     0.4070 h1         1 SGF       0.038200
     77 H41         -6.9740    -4.6680     2.3160 ho         1 SGF       0.494000
     78 H42         -9.4030    -0.9280     0.6620 h1         1 SGF       0.072700
     79 H43         -9.1650    -1.0840    -1.7750 ho         1 SGF       0.531000
     80 H44         -8.0470     1.0910     0.5420 h1         1 SGF       0.059700
     81 H45         -2.1910    -2.4510    -1.7370 hn         1 SGF       0.406500
     82 H46         -3.0120    -1.1620    -2.2200 hn         1 SGF       0.406500
@<TRIPOS>BOND
     1     1     2 1   
     2     1    37 1   
     3     1    38 1   
     4     1    39 1   
     5     2     3 1   
     6     2    40 1   
     7     2    41 1   
     8     3     4 1   
     9     3    42 1   
    10     3    43 1   
    11     4     5 1   
    12     4    44 1   
    13     4    45 1   
    14     5     6 1   
    15     5    46 1   
    16     5    47 1   
    17     6     7 1   
    18     6    48 1   
    19     6    49 1   
    20     7     8 1   
    21     7    50 1   
    22     7    51 1   
    23     8     9 1   
    24     8    52 1   
    25     8    53 1   
    26     9    10 1   
    27     9    54 1   
    28     9    55 1   
    29    10    11 1   
    30    10    56 1   
    31    10    57 1   
    32    11    12 1   
    33    11    58 1   
    34    11    59 1   
    35    12    13 1   
    36    12    60 1   
    37    12    61 1   
    38    13    14 1   
    39    13    62 1   
    40    13    63 1   
    41    14    15 2   
    42    14    64 1   
    43    15    16 1   
    44    15    65 1   
    45    16    17 1   
    46    16    18 1   
    47    16    66 1   
    48    17    67 1   
    49    18    19 1   
    50    18    36 1   
    51    18    68 1   
    52    19    20 1   
    53    19    69 1   
    54    19    70 1   
    55    20    21 1   
    56    21    22 1   
    57    21    24 1   
    58    21    71 1   
    59    22    23 1   
    60    22    30 1   
    61    22    72 1   
    62    23    73 1   
    63    24    25 1   
    64    25    26 1   
    65    25    28 1   
    66    25    74 1   
    67    26    27 1   
    68    26    75 1   
    69    26    76 1   
    70    27    77 1   
    71    28    29 1   
    72    28    30 1   
    73    28    78 1   
    74    29    79 1   
    75    30    31 1   
    76    30    80 1   
    77    31    32 1   
    78    32    33 1   
    79    32    34 1   
    80    32    35 1   
    81    36    81 1   
    82    36    82 1   
@<TRIPOS>SUBSTRUCTURE
     1 SGF         1 TEMP              0 ****  ****    0 ROOT
