@<TRIPOS>MOLECULE
SGF
   82    82     1     0     0
SMALL
abcg2


@<TRIPOS>ATOM
      1 C17         16.3970     3.3660     0.1420 c3         1 SGF      -0.088100
      2 C16         14.9030     3.4540     0.4220 c3         1 SGF      -0.075400
      3 C15         14.1550     2.1800     0.0470 c3         1 SGF      -0.075400
      4 C14         12.6590     2.2540     0.3230 c3         1 SGF      -0.075400
      5 C13         11.9150     0.9780    -0.0480 c3         1 SGF      -0.074400
      6 C12         10.4180     1.0480     0.2320 c3         1 SGF      -0.074400
      7 C11          9.6760    -0.2290    -0.1410 c3         1 SGF      -0.073400
      8 C10          8.1820    -0.1650     0.1530 c3         1 SGF      -0.075400
      9 C9           7.4390    -1.4400    -0.2250 c3         1 SGF      -0.073400
     10 C8           5.9500    -1.3870     0.0970 c3         1 SGF      -0.075400
     11 C7           5.2050    -2.6570    -0.2910 c3         1 SGF      -0.073400
     12 C6           3.7280    -2.6220     0.0830 c3         1 SGF      -0.074400
     13 C5           2.9780    -3.8920    -0.3230 c3         1 SGF      -0.038200
     14 C4           1.5670    -3.8960     0.1750 c2         1 SGF      -0.227200
     15 C3           0.4880    -3.8670    -0.6010 c2         1 SGF      -0.235200
     16 C2          -0.9320    -3.8140    -0.1090 c3         1 SGF       0.206500
     17 O1          -1.0240    -3.7230     1.2920 oh         1 SGF      -0.656000
     18 C1          -1.7100    -2.6890    -0.8220 c3         1 SGF       0.126500
     19 C           -3.0670    -2.4630    -0.1600 c3         1 SGF       0.132600
     20 O           -3.7520    -1.4530    -0.8850 os         1 SGF      -0.469000
     21 C43         -4.6010    -0.6630    -0.1430 c6         1 SGF       0.354300
     22 C44         -4.9660     0.5650    -0.9830 c6         1 SGF       0.145300
     23 O3          -3.8360     1.3530    -1.2430 oh         1 SGF      -0.682000
     24 O6          -5.7460    -1.4040     0.1790 os         1 SGF      -0.472000
     25 C47         -6.6300    -0.6760     1.0050 c6         1 SGF       0.181300
     26 C48         -7.7460    -1.5920     1.4580 c3         1 SGF       0.167600
     27 O7          -7.2120    -2.5610     2.3290 oh         1 SGF      -0.723000
     28 C46         -7.1510     0.5530     0.2730 c6         1 SGF       0.119300
     29 O5          -7.9450     0.1270    -0.8070 oh         1 SGF      -0.731000
     30 C45         -5.9680     1.4010    -0.2010 c6         1 SGF       0.205300
     31 O4          -6.4420     2.4380    -1.0490 os         1 SGF      -0.591700
     32 S           -6.5900     3.9570    -0.4230 s6         1 SGF       1.494300
     33 O10         -7.2830     4.6270    -1.5210 o          1 SGF      -0.703200
     34 O9          -7.3790     3.8030     0.8020 o          1 SGF      -0.703200
     35 O8          -5.2240     4.4210    -0.1900 o          1 SGF      -0.703200
     36 N           -1.7900    -3.0100    -2.2360 n8         1 SGF      -1.006200
     37 H1          16.9140     4.2870     0.4150 hc         1 SGF       0.030367
     38 H2          16.8540     2.5500     0.7070 hc         1 SGF       0.030367
     39 H3          16.5890     3.1790    -0.9160 hc         1 SGF       0.030367
     40 H4          14.7410     3.6700     1.4820 hc         1 SGF       0.037200
     41 H5          14.4750     4.2990    -0.1270 hc         1 SGF       0.037200
     42 H6          14.3180     1.9620    -1.0140 hc         1 SGF       0.036200
     43 H7          14.5840     1.3350     0.5970 hc         1 SGF       0.036200
     44 H8          12.4970     2.4750     1.3840 hc         1 SGF       0.037200
     45 H9          12.2290     3.0980    -0.2290 hc         1 SGF       0.037200
     46 H10         12.0740     0.7600    -1.1100 hc         1 SGF       0.036200
     47 H11         12.3470     0.1340     0.5010 hc         1 SGF       0.036200
     48 H12         10.2600     1.2650     1.2940 hc         1 SGF       0.038200
     49 H13          9.9850     1.8930    -0.3160 hc         1 SGF       0.038200
     50 H14          9.8270    -0.4400    -1.2050 hc         1 SGF       0.035700
     51 H15         10.1150    -1.0740     0.4000 hc         1 SGF       0.035700
     52 H16          8.0320     0.0430     1.2180 hc         1 SGF       0.038700
     53 H17          7.7410     0.6830    -0.3830 hc         1 SGF       0.038700
     54 H18          7.5720    -1.6340    -1.2950 hc         1 SGF       0.035700
     55 H19          7.8910    -2.2920     0.2950 hc         1 SGF       0.035700
     56 H20          5.8190    -1.2000     1.1690 hc         1 SGF       0.039700
     57 H21          5.4970    -0.5300    -0.4160 hc         1 SGF       0.039700
     58 H22          5.3040    -2.8210    -1.3700 hc         1 SGF       0.035200
     59 H23          5.6790    -3.5190     0.1910 hc         1 SGF       0.035200
     60 H24          3.6320    -2.4710     1.1630 hc         1 SGF       0.041200
     61 H25          3.2480    -1.7580    -0.3870 hc         1 SGF       0.041200
     62 H26          2.9990    -3.9990    -1.4110 hc         1 SGF       0.040700
     63 H27          3.5090    -4.7580     0.0880 hc         1 SGF       0.040700
     64 H28          1.4560    -3.9040     1.2560 ha         1 SGF       0.168000
     65 H29          0.6010    -3.8640    -1.6800 ha         1 SGF       0.193000
     66 H30         -1.4270    -4.7590    -0.3700 h1         1 SGF       0.077700
     67 H31         -0.5920    -2.9090     1.5750 ho         1 SGF       0.442000
     68 H32         -1.1310    -1.7620    -0.7320 h1         1 SGF       0.064700
     69 H33         -3.6490    -3.3940    -0.1680 h1         1 SGF       0.047200
     70 H34         -2.9460    -2.1580     0.8840 h1         1 SGF       0.047200
     71 H35         -4.1060    -0.3270     0.7890 h2         1 SGF       0.024700
     72 H36         -5.4410     0.2140    -1.9110 h1         1 SGF       0.068700
     73 H37         -3.2320     0.8370    -1.7870 ho         1 SGF       0.494000
     74 H38         -6.0970    -0.3160     1.9010 h1         1 SGF       0.046700
     75 H39         -8.5040    -0.9740     1.9580 h1         1 SGF       0.038200
     76 H40         -8.2280    -2.0480     0.5870 h1         1 SGF       0.038200
     77 H41         -7.8720    -3.2480     2.4530 ho         1 SGF       0.494000
     78 H42         -7.7350     1.1510     0.9850 h1         1 SGF       0.072700
     79 H43         -8.2270     0.9070    -1.2960 ho         1 SGF       0.531000
     80 H44         -5.4610     1.8090     0.6840 h1         1 SGF       0.059700
     81 H45         -2.4490    -3.7670    -2.3840 hn         1 SGF       0.406500
     82 H46         -2.1490    -2.2180    -2.7520 hn         1 SGF       0.406500
@<TRIPOS>BOND
     1     1     2 1   
     2     1    37 1   
     3     1    38 1   
     4     1    39 1   
     5     2     3 1   
     6     2    40 1   
     7     2    41 1   
     8     3     4 1   
     9     3    42 1   
    10     3    43 1   
    11     4     5 1   
    12     4    44 1   
    13     4    45 1   
    14     5     6 1   
    15     5    46 1   
    16     5    47 1   
    17     6     7 1   
    18     6    48 1   
    19     6    49 1   
    20     7     8 1   
    21     7    50 1   
    22     7    51 1   
    23     8     9 1   
    24     8    52 1   
    25     8    53 1   
    26     9    10 1   
    27     9    54 1   
    28     9    55 1   
    29    10    11 1   
    30    10    56 1   
    31    10    57 1   
    32    11    12 1   
    33    11    58 1   
    34    11    59 1   
    35    12    13 1   
    36    12    60 1   
    37    12    61 1   
    38    13    14 1   
    39    13    62 1   
    40    13    63 1   
    41    14    15 2   
    42    14    64 1   
    43    15    16 1   
    44    15    65 1   
    45    16    17 1   
    46    16    18 1   
    47    16    66 1   
    48    17    67 1   
    49    18    19 1   
    50    18    36 1   
    51    18    68 1   
    52    19    20 1   
    53    19    69 1   
    54    19    70 1   
    55    20    21 1   
    56    21    22 1   
    57    21    24 1   
    58    21    71 1   
    59    22    23 1   
    60    22    30 1   
    61    22    72 1   
    62    23    73 1   
    63    24    25 1   
    64    25    26 1   
    65    25    28 1   
    66    25    74 1   
    67    26    27 1   
    68    26    75 1   
    69    26    76 1   
    70    27    77 1   
    71    28    29 1   
    72    28    30 1   
    73    28    78 1   
    74    29    79 1   
    75    30    31 1   
    76    30    80 1   
    77    31    32 1   
    78    32    33 1   
    79    32    34 1   
    80    32    35 1   
    81    36    81 1   
    82    36    82 1   
@<TRIPOS>SUBSTRUCTURE
     1 SGF         1 TEMP              0 ****  ****    0 ROOT
