@<TRIPOS>MOLECULE
SGG
   46    47     1     0     0
SMALL
abcg2


@<TRIPOS>ATOM
      1 C13        203.9360   146.6210   107.6480 ca         1 SGG       0.112000
      2 C15        204.5970   141.8120   108.8560 c3         1 SGG      -0.094100
      3 C17        201.7500   141.3190   105.4960 c3         1 SGG       0.183300
      4 C20        199.2260   144.1650   105.0190 ca         1 SGG      -0.003300
      5 C21        198.6680   144.8970   103.9700 ca         1 SGG      -0.122000
      6 C22        199.1880   146.1300   103.6010 ca         1 SGG      -0.116000
      7 C24        200.8520   145.9430   105.3150 ca         1 SGG      -0.116000
      8 C04        204.8070   145.8470   106.8900 ca         1 SGG       0.115000
      9 C07        204.7170   144.4650   106.9160 ca         1 SGG      -0.072000
     10 C09        203.7490   143.8340   107.6870 ca         1 SGG      -0.058300
     11 C11        202.8800   144.6170   108.4390 ca         1 SGG      -0.100000
     12 C12        202.9720   145.9990   108.4260 ca         1 SGG      -0.098000
     13 C14        203.6710   142.3240   107.7550 c3         1 SGG       0.229800
     14 C18        200.9930   141.5410   104.1940 c3         1 SGG      -0.433400
     15 C19        198.6890   142.8210   105.3970 c3         1 SGG      -0.395100
     16 C23        200.2870   146.6580   104.2680 ca         1 SGG      -0.146000
     17 C25        200.3230   144.7130   105.6850 ca         1 SGG      -0.122000
     18 N05        204.0590   141.7270   106.4930 n7         1 SGG      -0.897400
     19 O06        198.6580   141.7940   102.8480 o          1 SGG      -0.813500
     20 O08        198.6890   140.1480   104.8750 o          1 SGG      -0.813500
     21 O10        201.8120   139.9290   105.7590 oh         1 SGG      -0.639000
     22 P03        199.1530   141.4380   104.2350 p5         1 SGG       1.402000
     23 CL1        204.0220   148.3420   107.6090 cl         1 SGG      -0.191000
     24 CL2        206.0080   146.5950   105.9030 cl         1 SGG      -0.191000
     25 H1         204.3350   142.2500   109.8180 hc         1 SGG       0.037033
     26 H2         204.5180   140.7270   108.9510 hc         1 SGG       0.037033
     27 H3         205.6360   142.0630   108.6350 hc         1 SGG       0.037033
     28 H4         201.2220   141.8310   106.3120 h1         1 SGG       0.016700
     29 H5         197.8120   144.4980   103.4390 ha         1 SGG       0.113000
     30 H6         198.7350   146.6810   102.7860 ha         1 SGG       0.095000
     31 H7         201.7040   146.3410   105.8520 ha         1 SGG       0.095000
     32 H8         205.3990   143.8710   106.3210 ha         1 SGG       0.151000
     33 H9         202.1140   144.1460   109.0440 ha         1 SGG       0.121000
     34 H10        202.2870   146.5990   109.0100 ha         1 SGG       0.128000
     35 H11        202.6410   142.0710   108.0530 h1         1 SGG       0.031700
     36 H12        203.6380   141.4980   104.4870 h1         1 SGG       0.060700
     37 H13        203.0540   142.9930   105.1870 h1         1 SGG       0.060700
     38 H14        201.3500   140.8260   103.4450 hc         1 SGG       0.063200
     39 H15        201.2440   142.5300   103.7990 hc         1 SGG       0.063200
     40 H16        197.5950   142.8330   105.3980 hc         1 SGG       0.055700
     41 H17        199.0010   142.5560   106.4090 hc         1 SGG       0.055700
     42 H18        200.6940   147.6180   103.9780 ha         1 SGG       0.092000
     43 H19        200.7670   144.1700   106.5110 ha         1 SGG       0.113000
     44 H20        204.2570   140.7430   106.6220 hn         1 SGG       0.420000
     45 H23        202.0370   139.8040   106.6860 ho         1 SGG       0.413000
     46 C16        203.1560   141.9190   105.3750 c3         1 SGG       0.118800
@<TRIPOS>BOND
     1     1     8 ar  
     2     1    12 ar  
     3     1    23 1   
     4     2    13 1   
     5     2    25 1   
     6     2    26 1   
     7     2    27 1   
     8     3    14 1   
     9     3    21 1   
    10     3    28 1   
    11     3    46 1   
    12     4     5 ar  
    13     4    15 1   
    14     4    17 ar  
    15     5     6 ar  
    16     5    29 1   
    17     6    16 ar  
    18     6    30 1   
    19     7    16 ar  
    20     7    17 ar  
    21     7    31 1   
    22     8     9 ar  
    23     8    24 1   
    24     9    10 ar  
    25     9    32 1   
    26    10    11 ar  
    27    10    13 1   
    28    11    12 ar  
    29    11    33 1   
    30    12    34 1   
    31    13    18 1   
    32    13    35 1   
    33    14    22 1   
    34    14    38 1   
    35    14    39 1   
    36    15    22 1   
    37    15    40 1   
    38    15    41 1   
    39    16    42 1   
    40    17    43 1   
    41    18    44 1   
    42    18    46 1   
    43    19    22 1   
    44    20    22 1   
    45    21    45 1   
    46    36    46 1   
    47    37    46 1   
@<TRIPOS>SUBSTRUCTURE
     1 SGG         1 TEMP              0 ****  ****    0 ROOT
