@<TRIPOS>MOLECULE
SGG
   46    47     1     0     0
SMALL
No Charge or Current Charge


@<TRIPOS>ATOM
      1 C13        202.8650   146.2590   107.7870 ca         1 SGG       0.112000
      2 C15        205.0590   141.7260   108.7540 c3         1 SGG      -0.094100
      3 C17        201.8040   141.2730   105.6180 c3         1 SGG       0.183300
      4 C20        199.6320   144.6020   104.9320 ca         1 SGG      -0.003300
      5 C21        198.7760   145.3170   104.0730 ca         1 SGG      -0.122000
      6 C22        199.2590   146.4200   103.3470 ca         1 SGG      -0.116000
      7 C24        201.4590   146.1070   104.3350 ca         1 SGG      -0.116000
      8 C04        204.0510   145.8190   107.1630 ca         1 SGG       0.115000
      9 C07        204.3840   144.4540   107.1750 ca         1 SGG      -0.072000
     10 C09        203.5360   143.5140   107.8000 ca         1 SGG      -0.058300
     11 C11        202.3560   143.9640   108.4260 ca         1 SGG      -0.100000
     12 C12        202.0230   145.3300   108.4200 ca         1 SGG      -0.098000
     13 C14        203.8850   142.0230   107.8040 c3         1 SGG       0.229800
     14 C18        200.8690   141.5050   104.4220 c3         1 SGG      -0.433400
     15 C19        199.1070   143.4160   105.7250 c3         1 SGG      -0.395100
     16 C23        200.6010   146.8150   103.4780 ca         1 SGG      -0.146000
     17 C25        200.9730   145.0050   105.0590 ca         1 SGG      -0.122000
     18 N05        204.2260   141.5210   106.4530 n7         1 SGG      -0.897400
     19 O06        198.2980   141.8720   103.6160 o          1 SGG      -0.813500
     20 O08        198.6160   140.7290   105.8010 o          1 SGG      -0.813500
     21 O10        201.8210   139.8740   105.9080 oh         1 SGG      -0.639000
     22 P03        199.1150   141.7870   104.8670 p5         1 SGG       1.402000
     23 Cl1        202.4100   147.9630   107.7820 cl         1 SGG      -0.191000
     24 Cl2        205.1300   146.9550   106.3530 cl         1 SGG      -0.191000
     25 H1         204.8230   142.0680   109.7690 hc         1 SGG       0.037033
     26 H2         205.2620   140.6490   108.7980 hc         1 SGG       0.037033
     27 H3         205.9720   142.2370   108.4240 hc         1 SGG       0.037033
     28 H4         201.4160   141.8280   106.4820 h1         1 SGG       0.016700
     29 H5         197.7360   145.0170   103.9670 ha         1 SGG       0.113000
     30 H6         198.5930   146.9680   102.6840 ha         1 SGG       0.095000
     31 H7         202.4980   146.4120   104.4390 ha         1 SGG       0.095000
     32 H8         205.2960   144.1200   106.6870 ha         1 SGG       0.151000
     33 H9         201.6910   143.2540   108.9150 ha         1 SGG       0.121000
     34 H10        201.1080   145.6680   108.9000 ha         1 SGG       0.128000
     35 H11        203.0150   141.4720   108.1850 h1         1 SGG       0.031700
     36 H12        203.6190   141.3080   104.4190 h1         1 SGG       0.060700
     37 H13        203.2080   142.8570   105.1360 h1         1 SGG       0.060700
     38 H14        200.9110   140.6690   103.7160 hc         1 SGG       0.063200
     39 H15        201.1650   142.4050   103.8770 hc         1 SGG       0.063200
     40 H16        198.0660   143.5840   106.0190 hc         1 SGG       0.055700
     41 H17        199.6730   143.2860   106.6530 hc         1 SGG       0.055700
     42 H18        200.9740   147.6690   102.9170 ha         1 SGG       0.092000
     43 H19        201.6410   144.4620   105.7180 ha         1 SGG       0.113000
     44 H20        204.4000   140.5110   106.5140 hn         1 SGG       0.420000
     45 H23        202.3240   139.7710   106.7410 ho         1 SGG       0.413000
     46 C16        203.2580   141.7800   105.3440 c3         1 SGG       0.118800
@<TRIPOS>BOND
     1     1     8 ar  
     2     1    12 ar  
     3     1    23 1   
     4     2    13 1   
     5     2    25 1   
     6     2    26 1   
     7     2    27 1   
     8     3    14 1   
     9     3    21 1   
    10     3    28 1   
    11     3    46 1   
    12     4     5 ar  
    13     4    15 1   
    14     4    17 ar  
    15     5     6 ar  
    16     5    29 1   
    17     6    16 ar  
    18     6    30 1   
    19     7    16 ar  
    20     7    17 ar  
    21     7    31 1   
    22     8     9 ar  
    23     8    24 1   
    24     9    10 ar  
    25     9    32 1   
    26    10    11 ar  
    27    10    13 1   
    28    11    12 ar  
    29    11    33 1   
    30    12    34 1   
    31    13    18 1   
    32    13    35 1   
    33    14    22 1   
    34    14    38 1   
    35    14    39 1   
    36    15    22 1   
    37    15    40 1   
    38    15    41 1   
    39    16    42 1   
    40    17    43 1   
    41    18    44 1   
    42    18    46 1   
    43    19    22 1   
    44    20    22 1   
    45    21    45 1   
    46    36    46 1   
    47    37    46 1   
@<TRIPOS>SUBSTRUCTURE
     1 SGG         1 TEMP              0 ****  ****    0 ROOT
