@<TRIPOS>MOLECULE
SGH
   35    37     1     0     0
SMALL
No Charge or Current Charge


@<TRIPOS>ATOM
      1 C01         21.3410    20.9440    -4.2890 c3         1 SGH      -0.063800
      2 C02         22.2210    21.2110    -3.0690 ca         1 SGH      -0.015300
      3 C03         23.5060    21.7510    -3.2830 ca         1 SGH      -0.115000
      4 C04         24.3610    22.0240    -2.2070 ca         1 SGH      -0.080000
      5 C05         23.9440    21.7640    -0.8930 ca         1 SGH      -0.013200
      6 C07         24.4520    22.6790     1.3550 cc         1 SGH       0.471000
      7 C08         23.2130    23.4340     1.6210 ca         1 SGH      -0.131500
      8 C09         22.7280    23.5460     2.9440 ca         1 SGH      -0.083000
      9 C10         21.5700    24.2910     3.2250 ca         1 SGH      -0.114500
     10 C11         20.8910    24.9540     2.1910 ca         1 SGH      -0.097000
     11 C12         21.3810    24.8840     0.8780 ca         1 SGH      -0.114500
     12 C13         22.5400    24.1400     0.5950 ca         1 SGH      -0.083000
     13 C15         26.4170    21.7830     1.5860 cd         1 SGH       0.237900
     14 C16         26.0370    21.4640     0.3060 cc         1 SGH      -0.219000
     15 C17         22.6690    21.2100    -0.6680 ca         1 SGH      -0.055000
     16 C18         21.7880    20.9330    -1.7430 ca         1 SGH      -0.187300
     17 C19         20.3930    20.3440    -1.4540 c3         1 SGH       0.359300
     18 F20         19.4020    21.1430    -1.9120 f          1 SGH      -0.112000
     19 F21         20.1540    20.1690    -0.1330 f          1 SGH      -0.112000
     20 F22         20.2280    19.1320    -2.0300 f          1 SGH      -0.112000
     21 N06         24.8000    22.0430     0.1750 na         1 SGH      -0.074300
     22 N14         25.4380    22.5230     2.2310 nd         1 SGH      -0.661000
     23 H1          21.0600    19.8870    -4.3590 hc         1 SGH       0.057700
     24 H2          20.4230    21.5420    -4.2590 hc         1 SGH       0.057700
     25 H3          21.8540    21.1970    -5.2240 hc         1 SGH       0.057700
     26 H4          23.8470    21.9640    -4.2930 ha         1 SGH       0.125000
     27 H5          25.3470    22.4460    -2.3950 ha         1 SGH       0.134000
     28 H6          23.2430    23.0410     3.7590 ha         1 SGH       0.122500
     29 H7          21.2000    24.3550     4.2460 ha         1 SGH       0.116000
     30 H8          19.9950    25.5320     2.4090 ha         1 SGH       0.115000
     31 H9          20.8680    25.4130     0.0780 ha         1 SGH       0.116000
     32 H10         22.9140    24.1280    -0.4250 ha         1 SGH       0.122500
     33 H11         27.3380    21.5070     2.0870 h4         1 SGH       0.041100
     34 H12         26.5220    20.8810    -0.4650 h4         1 SGH       0.160000
     35 H13         22.3680    20.9980     0.3560 ha         1 SGH       0.151000
@<TRIPOS>BOND
     1     1     2 1   
     2     1    23 1   
     3     1    24 1   
     4     1    25 1   
     5     2     3 ar  
     6     2    16 ar  
     7     3     4 ar  
     8     3    26 1   
     9     4     5 ar  
    10     4    27 1   
    11     5    15 ar  
    12     5    21 1   
    13     6     7 1   
    14     6    21 1   
    15     6    22 2   
    16     7     8 ar  
    17     7    12 ar  
    18     8     9 ar  
    19     8    28 1   
    20     9    10 ar  
    21     9    29 1   
    22    10    11 ar  
    23    10    30 1   
    24    11    12 ar  
    25    11    31 1   
    26    12    32 1   
    27    13    14 2   
    28    13    22 1   
    29    13    33 1   
    30    14    21 1   
    31    14    34 1   
    32    15    16 ar  
    33    15    35 1   
    34    16    17 1   
    35    17    18 1   
    36    17    19 1   
    37    17    20 1   
@<TRIPOS>SUBSTRUCTURE
     1 SGH         1 TEMP              0 ****  ****    0 ROOT
