@<TRIPOS>MOLECULE
SGH
   35    37     1     0     0
SMALL
bcc


@<TRIPOS>ATOM
      1 C01         21.3310    20.9400    -4.2450 c3         1 SGH      -0.063800
      2 C02         22.1910    21.1970    -3.0400 ca         1 SGH      -0.015300
      3 C03         23.4780    21.6910    -3.2320 ca         1 SGH      -0.133000
      4 C04         24.3300    21.9610    -2.1740 ca         1 SGH      -0.098000
      5 C05         23.9050    21.7150    -0.8810 ca         1 SGH      -0.013200
      6 C07         24.4800    22.7060     1.3410 cc         1 SGH       0.471000
      7 C08         23.2390    23.4500     1.5790 ca         1 SGH      -0.131500
      8 C09         22.7010    23.4620     2.8660 ca         1 SGH      -0.101000
      9 C10         21.5410    24.1710     3.1370 ca         1 SGH      -0.132500
     10 C11         20.9030    24.8780     2.1260 ca         1 SGH      -0.115000
     11 C12         21.4400    24.8820     0.8450 ca         1 SGH      -0.132500
     12 C13         22.6030    24.1770     0.5720 ca         1 SGH      -0.101000
     13 C15         26.4460    21.8980     1.5850 cd         1 SGH       0.303200
     14 C16         26.0220    21.4740     0.3630 cc         1 SGH      -0.251600
     15 C17         22.6400    21.1960    -0.6540 ca         1 SGH      -0.073000
     16 C18         21.7860    20.9520    -1.7200 ca         1 SGH      -0.187300
     17 C19         20.4030    20.4470    -1.4230 c3         1 SGH       0.723200
     18 F20         19.4680    21.3540    -1.7410 f          1 SGH      -0.233300
     19 F21         20.2280    20.1610    -0.1300 f          1 SGH      -0.233300
     20 F22         20.1090    19.3320    -2.1050 f          1 SGH      -0.233300
     21 N06         24.7600    21.9900     0.2110 na         1 SGH      -0.125000
     22 N14         25.4830    22.6570     2.1820 nd         1 SGH      -0.661000
     23 H1          21.2180    19.8720    -4.4330 hc         1 SGH       0.057700
     24 H2          20.3330    21.3640    -4.1520 hc         1 SGH       0.057700
     25 H3          21.7890    21.3770    -5.1300 hc         1 SGH       0.057700
     26 H4          23.8170    21.8900    -4.2410 ha         1 SGH       0.143000
     27 H5          25.3140    22.3740    -2.3600 ha         1 SGH       0.152000
     28 H6          23.1890    22.9040     3.6540 ha         1 SGH       0.140500
     29 H7          21.1310    24.1660     4.1380 ha         1 SGH       0.134000
     30 H8          19.9940    25.4270     2.3350 ha         1 SGH       0.133000
     31 H9          20.9580    25.4420     0.0550 ha         1 SGH       0.134000
     32 H10         23.0190    24.2120    -0.4260 ha         1 SGH       0.140500
     33 H11         27.3920    21.6950     2.0640 h4         1 SGH       0.041100
     34 H12         26.4780    20.8520    -0.3890 h4         1 SGH       0.178000
     35 H13         22.3330    20.9910     0.3620 ha         1 SGH       0.169000
@<TRIPOS>BOND
     1     1     2 1   
     2     1    23 1   
     3     1    24 1   
     4     1    25 1   
     5     2     3 ar  
     6     2    16 ar  
     7     3     4 ar  
     8     3    26 1   
     9     4     5 ar  
    10     4    27 1   
    11     5    15 ar  
    12     5    21 1   
    13     6     7 1   
    14     6    21 1   
    15     6    22 2   
    16     7     8 ar  
    17     7    12 ar  
    18     8     9 ar  
    19     8    28 1   
    20     9    10 ar  
    21     9    29 1   
    22    10    11 ar  
    23    10    30 1   
    24    11    12 ar  
    25    11    31 1   
    26    12    32 1   
    27    13    14 2   
    28    13    22 1   
    29    13    33 1   
    30    14    21 1   
    31    14    34 1   
    32    15    16 ar  
    33    15    35 1   
    34    16    17 1   
    35    17    18 1   
    36    17    19 1   
    37    17    20 1   
@<TRIPOS>SUBSTRUCTURE
     1 SGH         1 TEMP              0 ****  ****    0 ROOT
