@<TRIPOS>MOLECULE
SGI
   23    23     1     0     0
SMALL
No Charge or Current Charge


@<TRIPOS>ATOM
      1 O            3.9620    -0.0300     0.9410 o          1 SGI      -0.605100
      2 C            3.4470    -0.0300    -0.1650 c          1 SGI       0.602100
      3 N            4.2160    -0.0510    -1.2730 nt         1 SGI      -0.615000
      4 CA           1.9340    -0.0060    -0.4090 c3         1 SGI      -0.160400
      5 CB           1.0540     0.0190     0.8620 c3         1 SGI      -0.011100
      6 CG          -0.4300     0.0410     0.5220 ca         1 SGI      -0.122300
      7 CD1         -1.1420    -1.1650     0.3690 ca         1 SGI      -0.069000
      8 CE1         -2.5120    -1.1440     0.0510 ca         1 SGI      -0.174000
      9 CZ          -3.1740     0.0830    -0.1180 ca         1 SGI       0.137100
     10 OH          -4.5010     0.1110    -0.4270 oh         1 SGI      -0.534100
     11 CE2         -2.4700     1.2860     0.0300 ca         1 SGI      -0.174000
     12 CD2         -1.1010     1.2680     0.3480 ca         1 SGI      -0.069000
     13 HN1          5.2210    -0.0670    -1.1770 hn         1 SGI       0.312500
     14 HN2          3.7870    -0.0500    -2.1860 hn         1 SGI       0.312500
     15 HA1          1.7140     0.8370    -1.0740 hc         1 SGI       0.057700
     16 HA2          1.6860    -0.8530    -1.0590 hc         1 SGI       0.057700
     17 HB1          1.2870    -0.8570     1.4800 hc         1 SGI       0.062700
     18 HB2          1.3160     0.8970     1.4650 hc         1 SGI       0.062700
     19 HD1         -0.6340    -2.1190     0.4970 ha         1 SGI       0.113000
     20 HE1         -3.0490    -2.0820    -0.0630 ha         1 SGI       0.120000
     21 HOH         -4.8240    -0.8130    -0.4900 ho         1 SGI       0.464000
     22 HE2         -2.9830     2.2350    -0.1030 ha         1 SGI       0.120000
     23 HD2         -0.5610     2.2070     0.4590 ha         1 SGI       0.113000
@<TRIPOS>BOND
     1     1     2 2   
     2     2     3 1   
     3     2     4 1   
     4     3    13 1   
     5     3    14 1   
     6     4     5 1   
     7     4    15 1   
     8     4    16 1   
     9     5     6 1   
    10     5    17 1   
    11     5    18 1   
    12     6     7 ar  
    13     6    12 ar  
    14     7     8 ar  
    15     7    19 1   
    16     8     9 ar  
    17     8    20 1   
    18     9    10 1   
    19     9    11 ar  
    20    10    21 1   
    21    11    12 ar  
    22    11    22 1   
    23    12    23 1   
@<TRIPOS>SUBSTRUCTURE
     1 SGI         1 TEMP              0 ****  ****    0 ROOT
