@<TRIPOS>MOLECULE
SGI
   23    23     1     0     0
SMALL
bcc


@<TRIPOS>ATOM
      1 O            3.8850     0.0450     0.9600 o          1 SGI      -0.605100
      2 C            3.4010     0.0070    -0.1630 c          1 SGI       0.669100
      3 N            4.1520    -0.0490    -1.2750 nt         1 SGI      -0.682000
      4 CA           1.9060     0.0240    -0.4140 c3         1 SGI      -0.160400
      5 CB           1.0680    -0.0150     0.8590 c3         1 SGI      -0.011100
      6 CG          -0.4020     0.0120     0.5430 ca         1 SGI      -0.122300
      7 CD1         -1.1340    -1.1630     0.4070 ca         1 SGI      -0.087000
      8 CE1         -2.4820    -1.1460     0.0740 ca         1 SGI      -0.192000
      9 CZ          -3.1310     0.0670    -0.1330 ca         1 SGI       0.137100
     10 OH          -4.4400     0.1500    -0.4560 oh         1 SGI      -0.495100
     11 CE2         -2.4160     1.2540     0.0010 ca         1 SGI      -0.192000
     12 CD2         -1.0710     1.2160     0.3340 ca         1 SGI      -0.087000
     13 HN1          5.1570    -0.0500    -1.2170 hn         1 SGI       0.312500
     14 HN2          3.7400    -0.0770    -2.1920 hn         1 SGI       0.312500
     15 HA1          1.6660     0.9200    -0.9940 hc         1 SGI       0.057700
     16 HA2          1.6490    -0.8200    -1.0600 hc         1 SGI       0.057700
     17 HB1          1.3070    -0.9150     1.4280 hc         1 SGI       0.062700
     18 HB2          1.3260     0.8350     1.4940 hc         1 SGI       0.062700
     19 HD1         -0.6490    -2.1190     0.5690 ha         1 SGI       0.131000
     20 HE1         -3.0250    -2.0800    -0.0210 ha         1 SGI       0.138000
     21 HOH         -4.8180    -0.7320    -0.5460 ho         1 SGI       0.425000
     22 HE2         -2.9140     2.2030    -0.1560 ha         1 SGI       0.138000
     23 HD2         -0.5320     2.1510     0.4370 ha         1 SGI       0.131000
@<TRIPOS>BOND
     1     1     2 2   
     2     2     3 1   
     3     2     4 1   
     4     3    13 1   
     5     3    14 1   
     6     4     5 1   
     7     4    15 1   
     8     4    16 1   
     9     5     6 1   
    10     5    17 1   
    11     5    18 1   
    12     6     7 ar  
    13     6    12 ar  
    14     7     8 ar  
    15     7    19 1   
    16     8     9 ar  
    17     8    20 1   
    18     9    10 1   
    19     9    11 ar  
    20    10    21 1   
    21    11    12 ar  
    22    11    22 1   
    23    12    23 1   
@<TRIPOS>SUBSTRUCTURE
     1 SGI         1 TEMP              0 ****  ****    0 ROOT
