@<TRIPOS>MOLECULE
SGJ
   24    24     1     0     0
SMALL
No Charge or Current Charge


@<TRIPOS>ATOM
      1 O1          -3.4280    -1.3850     0.0970 oh         1 SGJ      -0.641000
      2 C1          -2.5520    -0.3480    -0.3850 c3         1 SGJ       0.166600
      3 C2          -1.0930    -0.4490     0.1910 c6         1 SGJ       0.181500
      4 N1          -0.4850    -1.7780    -0.1520 n7         1 SGJ      -0.836400
      5 C3           0.9100    -1.9430     0.3400 c6         1 SGJ       0.127800
      6 C4           1.8440    -0.8200    -0.1960 c6         1 SGJ       0.093300
      7 O2           3.1860    -0.9700     0.3080 oh         1 SGJ      -0.663000
      8 C5           1.2690     0.5660     0.2120 c6         1 SGJ       0.173300
      9 O3           2.1210     1.6060    -0.2970 oh         1 SGJ      -0.672000
     10 C6          -0.1900     0.7300    -0.3040 c6         1 SGJ       0.062300
     11 S1          -0.8580     2.3910     0.2800 sh         1 SGJ      -0.457800
     12 H1          -4.2870    -1.2730    -0.3670 ho         1 SGJ       0.441000
     13 H2          -2.4930    -0.3880    -1.4810 h1         1 SGJ       0.027700
     14 H3          -2.9700     0.6310    -0.1190 h1         1 SGJ       0.027700
     15 H4          -1.1730    -0.3710     1.2870 h1         1 SGJ       0.089700
     16 H5          -0.5000    -1.8970    -1.1720 hn         1 SGJ       0.412000
     17 H7           0.9140    -1.9250     1.4410 h1         1 SGJ       0.065200
     18 H8           1.2940    -2.9250     0.0260 h1         1 SGJ       0.065200
     19 H9           1.8550    -0.8800    -1.2950 h1         1 SGJ       0.038700
     20 H10          3.5420    -1.8130    -0.0560 ho         1 SGJ       0.452000
     21 H11          1.2470     0.6120     1.3120 h1         1 SGJ       0.063700
     22 H12          3.0320     1.2500    -0.1880 ho         1 SGJ       0.469000
     23 H13         -0.1720     0.7230    -1.4040 h1         1 SGJ       0.074700
     24 H14          0.2440     3.0900    -0.0990 hs         1 SGJ       0.240800
@<TRIPOS>BOND
     1     1     2 1   
     2     1    12 1   
     3     2     3 1   
     4     2    13 1   
     5     2    14 1   
     6     3     4 1   
     7     3    10 1   
     8     3    15 1   
     9     4     5 1   
    10     4    16 1   
    11     5     6 1   
    12     5    17 1   
    13     5    18 1   
    14     6     7 1   
    15     6     8 1   
    16     6    19 1   
    17     7    20 1   
    18     8     9 1   
    19     8    10 1   
    20     8    21 1   
    21     9    22 1   
    22    10    11 1   
    23    10    23 1   
    24    11    24 1   
@<TRIPOS>SUBSTRUCTURE
     1 SGJ         1 TEMP              0 ****  ****    0 ROOT
