@<TRIPOS>MOLECULE
SGJ
   24    24     1     0     0
SMALL
abcg2


@<TRIPOS>ATOM
      1 O1          -3.2640    -1.3670     0.1130 oh         1 SGJ      -0.641000
      2 C1          -2.4660    -0.3320    -0.4050 c3         1 SGJ       0.166600
      3 C2          -1.0610    -0.4500     0.1680 c6         1 SGJ       0.181500
      4 N1          -0.5110    -1.7500    -0.1670 n7         1 SGJ      -0.836400
      5 C3           0.8430    -1.9380     0.3100 c6         1 SGJ       0.127800
      6 C4           1.7980    -0.8620    -0.1990 c6         1 SGJ       0.093300
      7 O2           3.0890    -0.9800     0.3610 oh         1 SGJ      -0.663000
      8 C5           1.2690     0.5120     0.1910 c6         1 SGJ       0.173300
      9 O3           2.0660     1.5420    -0.3410 oh         1 SGJ      -0.672000
     10 C6          -0.1570     0.7010    -0.3150 c6         1 SGJ       0.062300
     11 S1          -0.8440     2.2940     0.2780 sh         1 SGJ      -0.457800
     12 H1          -4.1660    -1.2180    -0.1830 ho         1 SGJ       0.441000
     13 H2          -2.4000    -0.3760    -1.5030 h1         1 SGJ       0.027700
     14 H3          -2.8810     0.6510    -0.1570 h1         1 SGJ       0.027700
     15 H4          -1.1230    -0.3890     1.2630 h1         1 SGJ       0.089700
     16 H5          -0.5480    -1.8900    -1.1710 hn         1 SGJ       0.412000
     17 H7           0.8370    -1.9270     1.4050 h1         1 SGJ       0.065200
     18 H8           1.1920    -2.9270     0.0050 h1         1 SGJ       0.065200
     19 H9           1.8400    -0.9200    -1.2980 h1         1 SGJ       0.038700
     20 H10          3.5450    -1.7100    -0.0680 ho         1 SGJ       0.452000
     21 H11          1.2440     0.5630     1.2920 h1         1 SGJ       0.063700
     22 H12          2.9660     1.4130    -0.0260 ho         1 SGJ       0.469000
     23 H13         -0.1540     0.7140    -1.4110 h1         1 SGJ       0.074700
     24 H14          0.1430     3.0810    -0.1610 hs         1 SGJ       0.240800
@<TRIPOS>BOND
     1     1     2 1   
     2     1    12 1   
     3     2     3 1   
     4     2    13 1   
     5     2    14 1   
     6     3     4 1   
     7     3    10 1   
     8     3    15 1   
     9     4     5 1   
    10     4    16 1   
    11     5     6 1   
    12     5    17 1   
    13     5    18 1   
    14     6     7 1   
    15     6     8 1   
    16     6    19 1   
    17     7    20 1   
    18     8     9 1   
    19     8    10 1   
    20     8    21 1   
    21     9    22 1   
    22    10    11 1   
    23    10    23 1   
    24    11    24 1   
@<TRIPOS>SUBSTRUCTURE
     1 SGJ         1 TEMP              0 ****  ****    0 ROOT
