@<TRIPOS>MOLECULE
SGK
   21    21     1     0     0
SMALL
bcc


@<TRIPOS>ATOM
      1 C          -23.0760    57.1010   -36.2200 c          1 SGK       0.931600
      2 O          -23.9970    56.2630   -36.2610 o          1 SGK      -0.840300
      3 CH3        -23.3760    58.5090   -36.7740 c3         1 SGK       0.008800
      4 C2         -25.0820    59.9180   -37.7480 c3         1 SGK       0.118500
      5 C3         -24.2190    60.6810   -38.7210 ca         1 SGK       0.440600
      6 C4         -23.4690    61.7790   -38.3120 ca         1 SGK      -0.245300
      7 C5         -22.6710    62.4370   -39.2370 ca         1 SGK      -0.099000
      8 C6         -22.6490    61.9760   -40.5430 ca         1 SGK      -0.271300
      9 C7         -23.4350    60.8760   -40.8580 ca         1 SGK       0.398200
     10 N1         -24.5900    58.5710   -37.5580 n7         1 SGK      -0.787200
     11 N8         -24.1990    60.2430   -39.9790 nb         1 SGK      -0.641000
     12 O1         -21.9340    56.9450   -35.7460 o          1 SGK      -0.840300
     13 H1         -22.5250    58.8390   -37.3780 h1         1 SGK       0.009700
     14 H2         -23.4030    59.1970   -35.9080 h1         1 SGK       0.009700
     15 H3         -25.1410    60.4900   -36.8080 h1         1 SGK       0.018200
     16 H4         -26.0960    59.8620   -38.1510 h1         1 SGK       0.018200
     17 H5         -23.5070    62.1060   -37.2820 ha         1 SGK       0.137000
     18 H6         -22.0750    63.2900   -38.9390 ha         1 SGK       0.121000
     19 H7         -22.0420    62.4510   -41.3020 ha         1 SGK       0.124000
     20 H8         -23.4480    60.4920   -41.8730 h4         1 SGK       0.005100
     21 H9         -25.2930    58.0050   -37.1030 hn         1 SGK       0.382800
@<TRIPOS>BOND
     1     1     2 1   
     2     1     3 1   
     3     1    12 1   
     4     3    10 1   
     5     3    13 1   
     6     3    14 1   
     7     4     5 1   
     8     4    10 1   
     9     4    15 1   
    10     4    16 1   
    11     5     6 ar  
    12     5    11 ar  
    13     6     7 ar  
    14     6    17 1   
    15     7     8 ar  
    16     7    18 1   
    17     8     9 ar  
    18     8    19 1   
    19     9    11 ar  
    20     9    20 1   
    21    10    21 1   
@<TRIPOS>SUBSTRUCTURE
     1 SGK         1 TEMP              0 ****  ****    0 ROOT
