@<TRIPOS>MOLECULE
SGK
   21    21     1     0     0
SMALL
No Charge or Current Charge


@<TRIPOS>ATOM
      1 C          -22.9410    57.1880   -36.0290 c          1 SGK       0.721000
      2 O          -23.7100    56.5760   -35.2970 o          1 SGK      -0.735000
      3 CH3        -23.4220    58.5610   -36.6350 c3         1 SGK       0.008800
      4 C2         -25.1950    59.8000   -37.9630 c3         1 SGK       0.118500
      5 C3         -24.2500    60.6200   -38.8700 ca         1 SGK       0.375300
      6 C4         -23.3540    61.5540   -38.3100 ca         1 SGK      -0.162000
      7 C5         -22.5120    62.2950   -39.1540 ca         1 SGK      -0.081000
      8 C6         -22.6040    62.0730   -40.5360 ca         1 SGK      -0.188000
      9 C7         -23.5270    61.1300   -41.0190 ca         1 SGK       0.332900
     10 N1         -24.6530    58.4910   -37.4930 n7         1 SGK      -0.842400
     11 N8         -24.3400    60.4140   -40.2110 nb         1 SGK      -0.641000
     12 O1         -21.8300    56.7700   -36.3320 o          1 SGK      -0.735000
     13 H1         -22.5900    58.9860   -37.2120 h1         1 SGK       0.009700
     14 H2         -23.6020    59.2370   -35.7880 h1         1 SGK       0.009700
     15 H3         -25.4610    60.4190   -37.0940 h1         1 SGK       0.018200
     16 H4         -26.1310    59.6240   -38.5110 h1         1 SGK       0.018200
     17 H5         -23.3150    61.6940   -37.2340 ha         1 SGK       0.119000
     18 H6         -21.8090    63.0200   -38.7480 ha         1 SGK       0.103000
     19 H7         -21.9740    62.6230   -41.2300 ha         1 SGK       0.106000
     20 H8         -23.6190    60.9410   -42.0880 h4         1 SGK       0.005100
     21 H9         -25.3870    58.0160   -36.9470 hn         1 SGK       0.438000
@<TRIPOS>BOND
     1     1     2 1   
     2     1     3 1   
     3     1    12 1   
     4     3    10 1   
     5     3    13 1   
     6     3    14 1   
     7     4     5 1   
     8     4    10 1   
     9     4    15 1   
    10     4    16 1   
    11     5     6 ar  
    12     5    11 ar  
    13     6     7 ar  
    14     6    17 1   
    15     7     8 ar  
    16     7    18 1   
    17     8     9 ar  
    18     8    19 1   
    19     9    11 ar  
    20     9    20 1   
    21    10    21 1   
@<TRIPOS>SUBSTRUCTURE
     1 SGK         1 TEMP              0 ****  ****    0 ROOT
