@<TRIPOS>MOLECULE
SGL
   15    14     1     0     0
SMALL
abcg2


@<TRIPOS>ATOM
      1 C1          -0.3440    -0.8310    -0.2170 c3         1 SGL      -0.047400
      2 S1          -1.9130    -0.3930     0.5510 ss         1 SGL      -0.041200
      3 C2           0.8640    -0.0830     0.3370 c3         1 SGL       0.178300
      4 O2           0.6770     1.3100     0.3580 oh         1 SGL      -0.622000
      5 C3           2.1060    -0.4880    -0.4420 c3         1 SGL       0.129600
      6 O3           3.2370     0.1020     0.1520 oh         1 SGL      -0.641000
      7 O4          -2.3090     1.0300    -0.2180 oh         1 SGL      -0.551800
      8 H11         -0.2320    -1.9040    -0.0390 h1         1 SGL       0.072700
      9 H12         -0.4390    -0.7040    -1.3010 h1         1 SGL       0.072700
     10 H2           0.9980    -0.3770     1.3830 h1         1 SGL       0.095700
     11 HO2          0.4240     1.6040    -0.5230 ho         1 SGL       0.436000
     12 H31          2.1750    -1.5840    -0.4450 h1         1 SGL       0.015700
     13 H32          1.9860    -0.1780    -1.4900 h1         1 SGL       0.015700
     14 HO3          4.0050    -0.1270    -0.3790 ho         1 SGL       0.441000
     15 HO4         -2.8170     0.8120    -1.0090 ho         1 SGL       0.446000
@<TRIPOS>BOND
     1     1     2 1   
     2     1     3 1   
     3     1     8 1   
     4     1     9 1   
     5     2     7 1   
     6     3     4 1   
     7     3     5 1   
     8     3    10 1   
     9     4    11 1   
    10     5     6 1   
    11     5    12 1   
    12     5    13 1   
    13     6    14 1   
    14     7    15 1   
@<TRIPOS>SUBSTRUCTURE
     1 SGL         1 TEMP              0 ****  ****    0 ROOT
