@<TRIPOS>MOLECULE
SGL
   15    14     1     0     0
SMALL
No Charge or Current Charge


@<TRIPOS>ATOM
      1 C1          -0.3390    -0.8810    -0.3380 c3         1 SGL      -0.047400
      2 S1          -1.9380    -0.3900     0.4530 ss         1 SGL      -0.041200
      3 C2           0.8540    -0.0700     0.2190 c3         1 SGL       0.178300
      4 O2           0.6260     1.3240    -0.0480 oh         1 SGL      -0.622000
      5 C3           2.2090    -0.5350    -0.3930 c3         1 SGL       0.129600
      6 O3           3.3260     0.1170     0.2370 oh         1 SGL      -0.641000
      7 O4          -2.1450     1.1640    -0.1880 oh         1 SGL      -0.551800
      8 H11         -0.1730    -1.9470    -0.1350 h1         1 SGL       0.072700
      9 H12         -0.4150    -0.7500    -1.4250 h1         1 SGL       0.072700
     10 H2           0.8980    -0.2450     1.3040 h1         1 SGL       0.095700
     11 HO2         -0.3580     1.4300    -0.0380 ho         1 SGL       0.436000
     12 H31          2.2980    -1.6220    -0.2670 h1         1 SGL       0.015700
     13 H32          2.2070    -0.3280    -1.4710 h1         1 SGL       0.015700
     14 HO3          4.1350    -0.1700    -0.2420 ho         1 SGL       0.441000
     15 HO4         -2.7670     1.0910    -0.9490 ho         1 SGL       0.446000
@<TRIPOS>BOND
     1     1     2 1   
     2     1     3 1   
     3     1     8 1   
     4     1     9 1   
     5     2     7 1   
     6     3     4 1   
     7     3     5 1   
     8     3    10 1   
     9     4    11 1   
    10     5     6 1   
    11     5    12 1   
    12     5    13 1   
    13     6    14 1   
    14     7    15 1   
@<TRIPOS>SUBSTRUCTURE
     1 SGL         1 TEMP              0 ****  ****    0 ROOT
