@<TRIPOS>MOLECULE
SGM
   14    13     1     0     0
SMALL
No Charge or Current Charge


@<TRIPOS>ATOM
      1 C1           0.8860    -0.7760     0.3020 c3         1 SGM       0.029600
      2 C2          -0.3810     0.0250    -0.0880 c3         1 SGM       0.178300
      3 O2          -0.3500     1.3280     0.5200 oh         1 SGM      -0.625000
      4 C3          -1.6860    -0.6940     0.3480 c3         1 SGM       0.130600
      5 O3          -2.8310     0.1160     0.0300 oh         1 SGM      -0.642000
      6 S1           2.4810    -0.0790    -0.3520 sh         1 SGM      -0.405800
      7 H11          0.9550    -0.8350     1.3960 h1         1 SGM       0.060700
      8 H12          0.7890    -1.8000    -0.0810 h1         1 SGM       0.060700
      9 H2          -0.4010     0.1150    -1.1830 h1         1 SGM       0.099700
     10 HO2         -1.2880     1.6250     0.5180 ho         1 SGM       0.438000
     11 H31         -1.7510    -1.6610    -0.1690 h1         1 SGM       0.018700
     12 H32         -1.6500    -0.8940     1.4270 h1         1 SGM       0.018700
     13 HO3         -3.6300    -0.4020     0.2770 ho         1 SGM       0.443000
     14 HS1          3.2920    -1.0170     0.1960 hs         1 SGM       0.194800
@<TRIPOS>BOND
     1     1     2 1   
     2     1     6 1   
     3     1     7 1   
     4     1     8 1   
     5     2     3 1   
     6     2     4 1   
     7     2     9 1   
     8     3    10 1   
     9     4     5 1   
    10     4    11 1   
    11     4    12 1   
    12     5    13 1   
    13     6    14 1   
@<TRIPOS>SUBSTRUCTURE
     1 SGM         1 TEMP              0 ****  ****    0 ROOT
