@<TRIPOS>MOLECULE
SGM
   14    13     1     0     0
SMALL
abcg2


@<TRIPOS>ATOM
      1 C1           0.7560    -0.7840     0.3970 c3         1 SGM       0.029600
      2 C2          -0.4280    -0.0110    -0.1720 c3         1 SGM       0.178300
      3 O2          -0.3680     1.3550     0.1630 oh         1 SGM      -0.625000
      4 C3          -1.7270    -0.6650     0.2710 c3         1 SGM       0.130600
      5 O3          -2.8010    -0.0310    -0.3800 oh         1 SGM      -0.642000
      6 S1           2.2900     0.1190     0.0030 sh         1 SGM      -0.405800
      7 H11          0.6630    -0.8980     1.4800 h1         1 SGM       0.060700
      8 H12          0.8000    -1.7790    -0.0450 h1         1 SGM       0.060700
      9 H2          -0.3700    -0.0490    -1.2640 h1         1 SGM       0.099700
     10 HO2         -0.4100     1.4410     1.1220 ho         1 SGM       0.438000
     11 H31         -1.6780    -1.7350     0.0300 h1         1 SGM       0.018700
     12 H32         -1.8100    -0.5910     1.3650 h1         1 SGM       0.018700
     13 HO3         -3.6180    -0.4300    -0.0660 ho         1 SGM       0.443000
     14 HS1          3.1340    -0.8910     0.2380 hs         1 SGM       0.194800
@<TRIPOS>BOND
     1     1     2 1   
     2     1     6 1   
     3     1     7 1   
     4     1     8 1   
     5     2     3 1   
     6     2     4 1   
     7     2     9 1   
     8     3    10 1   
     9     4     5 1   
    10     4    11 1   
    11     4    12 1   
    12     5    13 1   
    13     6    14 1   
@<TRIPOS>SUBSTRUCTURE
     1 SGM         1 TEMP              0 ****  ****    0 ROOT
