@<TRIPOS>MOLECULE
SGO
   50    52     1     0     0
SMALL
No Charge or Current Charge


@<TRIPOS>ATOM
      1 C1          16.7280    63.8210    26.4390 c3         1 SGO       0.163000
      2 C2          17.5150    64.6300    25.3830 c3         1 SGO      -0.222400
      3 C4          15.0540    61.9620    26.2630 c          1 SGO       0.600100
      4 C5          13.6330    61.6560    25.7730 c3         1 SGO      -0.123100
      5 N3          15.5520    63.1800    25.8600 ns         1 SGO      -0.459900
      6 C7          12.6180    61.9370    26.8820 ca         1 SGO      -0.073300
      7 C8          11.7040    60.9450    27.2830 ca         1 SGO      -0.091000
      8 C9          10.7920    61.2010    28.3210 ca         1 SGO      -0.110000
      9 C10         12.5970    63.1890    27.5260 ca         1 SGO      -0.111000
     10 C11         18.0980    63.6840    24.3280 c          1 SGO       0.719000
     11 C14         11.6930    63.4520    28.5710 ca         1 SGO      -0.074300
     12 C15         10.7840    62.4460    28.9780 ca         1 SGO      -0.079300
     13 C16          9.7730    62.6910    30.1060 c6         1 SGO      -0.026100
     14 C17         10.1220    63.9080    30.9930 c6         1 SGO      -0.073400
     15 C18         10.4970    65.1240    30.1220 c6         1 SGO      -0.071400
     16 C19         11.7480    64.8170    29.2700 c6         1 SGO      -0.030100
     17 C20         16.2800    64.6630    27.6360 ca         1 SGO      -0.075300
     18 C21         15.5510    65.8580    27.4580 ca         1 SGO      -0.096500
     19 C22         15.0880    66.5840    28.5680 ca         1 SGO      -0.116000
     20 C23         15.3410    66.1250    29.8730 ca         1 SGO      -0.101300
     21 C24         16.0680    64.9350    30.0560 ca         1 SGO      -0.116000
     22 C25         16.5310    64.2080    28.9460 ca         1 SGO      -0.096500
     23 C26         14.8240    66.9050    31.0720 c3         1 SGO      -0.035800
     24 O12         19.1770    63.1620    24.5630 o          1 SGO      -0.729500
     25 O13         17.4500    63.4750    23.3140 o          1 SGO      -0.729500
     26 O6          15.6780    61.2030    26.9940 o          1 SGO      -0.619100
     27 H1          17.4030    63.0360    26.8090 h1         1 SGO       0.101700
     28 H2          18.3250    65.1150    25.9400 hc         1 SGO       0.028200
     29 H3          16.8140    65.3350    24.9210 hc         1 SGO       0.028200
     30 H4          13.3920    62.2870    24.9100 hc         1 SGO       0.066700
     31 H5          13.5890    60.6010    25.4790 hc         1 SGO       0.066700
     32 H6          14.9710    63.7260    25.2380 hn         1 SGO       0.310500
     33 H7          11.7010    59.9720    26.7960 ha         1 SGO       0.124000
     34 H8          10.0910    60.4250    28.6200 ha         1 SGO       0.103000
     35 H9          13.2940    63.9670    27.2270 ha         1 SGO       0.111000
     36 H10          8.7810    62.8440    29.6600 hc         1 SGO       0.041700
     37 H11          9.6900    61.7950    30.7360 hc         1 SGO       0.041700
     38 H12         10.9620    63.6560    31.6550 hc         1 SGO       0.039200
     39 H13          9.2720    64.1530    31.6430 hc         1 SGO       0.039200
     40 H14         10.6830    66.0020    30.7560 hc         1 SGO       0.035700
     41 H15          9.6540    65.3820    29.4660 hc         1 SGO       0.035700
     42 H16         12.6360    64.8410    29.9160 hc         1 SGO       0.049200
     43 H17         11.8890    65.6150    28.5290 hc         1 SGO       0.049200
     44 H18         15.3240    66.2200    26.4580 ha         1 SGO       0.113500
     45 H19         14.5230    67.5000    28.4130 ha         1 SGO       0.095500
     46 H20         16.2690    64.5660    31.0590 ha         1 SGO       0.095500
     47 H21         17.0750    63.2790    29.1060 ha         1 SGO       0.113500
     48 H22         14.6930    66.2570    31.9470 hc         1 SGO       0.029367
     49 H23         15.5230    67.7040    31.3490 hc         1 SGO       0.029367
     50 H24         13.8530    67.3670    30.8580 hc         1 SGO       0.029367
@<TRIPOS>BOND
     1     1     2 1   
     2     1     5 1   
     3     1    17 1   
     4     1    27 1   
     5     2    10 1   
     6     2    28 1   
     7     2    29 1   
     8     3     4 1   
     9     3     5 1   
    10     3    26 2   
    11     4     6 1   
    12     4    30 1   
    13     4    31 1   
    14     5    32 1   
    15     6     7 ar  
    16     6     9 ar  
    17     7     8 ar  
    18     7    33 1   
    19     8    12 ar  
    20     8    34 1   
    21     9    11 ar  
    22     9    35 1   
    23    10    24 1   
    24    10    25 1   
    25    11    12 ar  
    26    11    16 1   
    27    12    13 1   
    28    13    14 1   
    29    13    36 1   
    30    13    37 1   
    31    14    15 1   
    32    14    38 1   
    33    14    39 1   
    34    15    16 1   
    35    15    40 1   
    36    15    41 1   
    37    16    42 1   
    38    16    43 1   
    39    17    18 ar  
    40    17    22 ar  
    41    18    19 ar  
    42    18    44 1   
    43    19    20 ar  
    44    19    45 1   
    45    20    21 ar  
    46    20    23 1   
    47    21    22 ar  
    48    21    46 1   
    49    22    47 1   
    50    23    48 1   
    51    23    49 1   
    52    23    50 1   
@<TRIPOS>SUBSTRUCTURE
     1 SGO         1 TEMP              0 ****  ****    0 ROOT
