@<TRIPOS>MOLECULE
SGO
   50    52     1     0     0
SMALL
abcg2


@<TRIPOS>ATOM
      1 C1          16.5300    63.8720    26.5080 c3         1 SGO       0.163000
      2 C2          16.7510    65.1030    25.6360 c3         1 SGO      -0.222400
      3 C4          15.1550    61.8430    26.3650 c          1 SGO       0.600100
      4 C5          13.7670    61.3510    25.9880 c3         1 SGO      -0.123100
      5 N3          15.4440    63.0890    25.9450 ns         1 SGO      -0.459900
      6 C7          12.8210    61.8880    27.0320 ca         1 SGO      -0.073300
      7 C8          12.7650    61.3120    28.3000 ca         1 SGO      -0.091000
      8 C9          12.0120    61.9030    29.2980 ca         1 SGO      -0.110000
      9 C10         12.0810    63.0380    26.8000 ca         1 SGO      -0.111000
     10 C11         17.2260    64.7620    24.2050 c          1 SGO       0.719000
     11 C14         11.3220    63.6470    27.7990 ca         1 SGO      -0.074300
     12 C15         11.2970    63.0810    29.0750 ca         1 SGO      -0.079300
     13 C16         10.5250    63.7150    30.2040 c6         1 SGO      -0.026100
     14 C17         10.2020    65.1790    29.9390 c6         1 SGO      -0.073400
     15 C18          9.5880    65.3310    28.5550 c6         1 SGO      -0.071400
     16 C19         10.5970    64.9330    27.4870 c6         1 SGO      -0.030100
     17 C20         16.2480    64.2440    27.9480 ca         1 SGO      -0.075300
     18 C21         15.0040    64.7360    28.3390 ca         1 SGO      -0.096500
     19 C22         14.7580    65.0840    29.6570 ca         1 SGO      -0.116000
     20 C23         15.7460    64.9600    30.6340 ca         1 SGO      -0.101300
     21 C24         16.9910    64.4820    30.2390 ca         1 SGO      -0.116000
     22 C25         17.2360    64.1260    28.9170 ca         1 SGO      -0.096500
     23 C26         15.4590    65.3050    32.0670 c3         1 SGO      -0.035800
     24 O12         18.1000    63.8770    24.1140 o          1 SGO      -0.729500
     25 O13         16.7200    65.4170    23.2740 o          1 SGO      -0.729500
     26 O6          15.9110    61.1790    27.0580 o          1 SGO      -0.619100
     27 H1          17.4410    63.2730    26.4730 h1         1 SGO       0.101700
     28 H2          17.5170    65.7210    26.1160 hc         1 SGO       0.028200
     29 H3          15.8400    65.7100    25.6150 hc         1 SGO       0.028200
     30 H4          13.4800    61.7000    24.9940 hc         1 SGO       0.066700
     31 H5          13.7690    60.2610    25.9780 hc         1 SGO       0.066700
     32 H6          14.7340    63.5910    25.4350 hn         1 SGO       0.310500
     33 H7          13.3280    60.4110    28.5120 ha         1 SGO       0.124000
     34 H8          11.9900    61.4540    30.2850 ha         1 SGO       0.103000
     35 H9          12.1070    63.4960    25.8150 ha         1 SGO       0.111000
     36 H10          9.5900    63.1660    30.3560 hc         1 SGO       0.041700
     37 H11         11.0900    63.6080    31.1330 hc         1 SGO       0.041700
     38 H12         11.1170    65.7780    30.0000 hc         1 SGO       0.039200
     39 H13          9.5270    65.5550    30.7100 hc         1 SGO       0.039200
     40 H14          9.2570    66.3570    28.3840 hc         1 SGO       0.035700
     41 H15          8.6980    64.6980    28.4850 hc         1 SGO       0.035700
     42 H16         11.3410    65.7310    27.3810 hc         1 SGO       0.049200
     43 H17         10.1100    64.8510    26.5120 hc         1 SGO       0.049200
     44 H18         14.2050    64.8360    27.6140 ha         1 SGO       0.113500
     45 H19         13.7770    65.4580    29.9330 ha         1 SGO       0.095500
     46 H20         17.7800    64.3750    30.9740 ha         1 SGO       0.095500
     47 H21         18.2130    63.7450    28.6410 ha         1 SGO       0.113500
     48 H22         14.8500    64.5340    32.5430 hc         1 SGO       0.029367
     49 H23         16.3760    65.4010    32.6470 hc         1 SGO       0.029367
     50 H24         14.9080    66.2420    32.1490 hc         1 SGO       0.029367
@<TRIPOS>BOND
     1     1     2 1   
     2     1     5 1   
     3     1    17 1   
     4     1    27 1   
     5     2    10 1   
     6     2    28 1   
     7     2    29 1   
     8     3     4 1   
     9     3     5 1   
    10     3    26 2   
    11     4     6 1   
    12     4    30 1   
    13     4    31 1   
    14     5    32 1   
    15     6     7 ar  
    16     6     9 ar  
    17     7     8 ar  
    18     7    33 1   
    19     8    12 ar  
    20     8    34 1   
    21     9    11 ar  
    22     9    35 1   
    23    10    24 1   
    24    10    25 1   
    25    11    12 ar  
    26    11    16 1   
    27    12    13 1   
    28    13    14 1   
    29    13    36 1   
    30    13    37 1   
    31    14    15 1   
    32    14    38 1   
    33    14    39 1   
    34    15    16 1   
    35    15    40 1   
    36    15    41 1   
    37    16    42 1   
    38    16    43 1   
    39    17    18 ar  
    40    17    22 ar  
    41    18    19 ar  
    42    18    44 1   
    43    19    20 ar  
    44    19    45 1   
    45    20    21 ar  
    46    20    23 1   
    47    21    22 ar  
    48    21    46 1   
    49    22    47 1   
    50    23    48 1   
    51    23    49 1   
    52    23    50 1   
@<TRIPOS>SUBSTRUCTURE
     1 SGO         1 TEMP              0 ****  ****    0 ROOT
