@<TRIPOS>MOLECULE
SGP
   35    38     1     0     0
SMALL
bcc


@<TRIPOS>ATOM
      1 P            1.6430     0.2930     2.8570 p5         1 SGP       1.125200
      2 S1P          3.1010     1.0930     3.7930 s          1 SGP      -0.487000
      3 O1P          1.7810    -1.2640     2.5350 oh         1 SGP      -0.702400
      4 O5          -3.7770    -1.6950     2.5460 oh         1 SGP      -0.578800
      5 C5          -3.0740    -0.5300     2.8880 c3         1 SGP       0.152400
      6 C4          -1.7130    -0.5730     2.2390 c5         1 SGP       0.125100
      7 O4          -1.8490    -0.5250     0.8280 os         1 SGP      -0.377600
      8 C3          -0.8460     0.6450     2.5910 c5         1 SGP       0.095100
      9 O3           0.1800     0.3470     3.5290 os         1 SGP      -0.474200
     10 C2          -0.1640     1.0180     1.2570 c5         1 SGP       0.075100
     11 O2           1.2360     1.0130     1.4660 os         1 SGP      -0.474200
     12 C1          -0.6360    -0.0850     0.2920 c5         1 SGP       0.242800
     13 N9          -0.8670     0.3600    -1.0480 na         1 SGP      -0.205900
     14 C8          -1.8280     1.2480    -1.4770 cc         1 SGP       0.410400
     15 N7          -1.7840     1.4490    -2.7560 nd         1 SGP      -0.586000
     16 C7          -0.7490     0.6660    -3.2010 cd         1 SGP       0.158800
     17 C6          -0.2260     0.4770    -4.5140 c          1 SGP       0.665000
     18 O6          -0.5910     0.9810    -5.5620 o          1 SGP      -0.581500
     19 N1           0.8480    -0.4230    -4.4900 ns         1 SGP      -0.524400
     20 C10          1.3500    -1.0500    -3.3860 cd         1 SGP       0.745800
     21 N2           2.3660    -1.9010    -3.5750 nv         1 SGP      -0.933800
     22 N3           0.8630    -0.8710    -2.1810 nc         1 SGP      -0.719100
     23 C9          -0.1670    -0.0200    -2.1540 cc         1 SGP       0.149800
     24 HOP1         2.6890    -1.5670     2.3980 ho         1 SGP       0.500000
     25 HO5         -4.6330    -1.6690     2.9840 ho         1 SGP       0.415000
     26 H5'1        -2.9170    -0.4430     3.9710 h1         1 SGP       0.034200
     27 H5'2        -3.5950     0.3820     2.5640 h1         1 SGP       0.034200
     28 H4          -1.1890    -1.4900     2.5390 h1         1 SGP       0.088700
     29 H3          -1.4350     1.4700     2.9930 h1         1 SGP       0.112700
     30 H2          -0.4520     2.0100     0.9080 h1         1 SGP       0.123700
     31 H1           0.1130    -0.8850     0.2370 h2         1 SGP       0.104700
     32 H8          -2.5300     1.7020    -0.7950 h5         1 SGP       0.063100
     33 HN1          1.2790    -0.6110    -5.3860 hn         1 SGP       0.325500
     34 HN21         2.8410    -2.2540    -2.7620 hn         1 SGP       0.448800
     35 HN22         2.8790    -1.9180    -4.4400 hn         1 SGP       0.448800
@<TRIPOS>BOND
     1     1     2 2   
     2     1     3 1   
     3     1     9 1   
     4     1    11 1   
     5     3    24 1   
     6     4     5 1   
     7     4    25 1   
     8     5     6 1   
     9     5    26 1   
    10     5    27 1   
    11     6     7 1   
    12     6     8 1   
    13     6    28 1   
    14     7    12 1   
    15     8     9 1   
    16     8    10 1   
    17     8    29 1   
    18    10    11 1   
    19    10    12 1   
    20    10    30 1   
    21    12    13 1   
    22    12    31 1   
    23    13    14 1   
    24    13    23 1   
    25    14    15 2   
    26    14    32 1   
    27    15    16 1   
    28    16    17 1   
    29    16    23 2   
    30    17    18 2   
    31    17    19 1   
    32    19    20 1   
    33    19    33 1   
    34    20    21 1   
    35    20    22 2   
    36    21    34 1   
    37    21    35 1   
    38    22    23 1   
@<TRIPOS>SUBSTRUCTURE
     1 SGP         1 TEMP              0 ****  ****    0 ROOT
