@<TRIPOS>MOLECULE
SGP
   35    38     1     0     0
SMALL
No Charge or Current Charge


@<TRIPOS>ATOM
      1 P            1.4970     0.5070     3.0420 p5         1 SGP       1.125200
      2 S1P          2.9480     1.1640     4.1700 s          1 SGP      -0.487000
      3 O1P          1.6450    -0.9850     2.4670 oh         1 SGP      -0.501400
      4 O5          -3.3660    -2.3140     2.5020 oh         1 SGP      -0.701000
      5 C5          -2.9790    -0.9660     2.8290 c3         1 SGP       0.175600
      6 C4          -1.6070    -0.6000     2.1970 c5         1 SGP       0.148300
      7 O4          -1.7220    -0.4390     0.7700 os         1 SGP      -0.424000
      8 C3          -1.0200     0.7700     2.6730 c5         1 SGP      -0.081700
      9 O3           0.0070     0.5230     3.6680 os         1 SGP      -0.297400
     10 C2          -0.2780     1.3250     1.3940 c5         1 SGP      -0.101700
     11 O2           1.1370     1.3690     1.7240 os         1 SGP      -0.297400
     12 C1          -0.5260     0.2120     0.3220 c5         1 SGP       0.295300
     13 N9          -0.6910     0.6420    -1.0610 na         1 SGP      -0.184500
     14 C8          -1.3900     1.7490    -1.5020 cc         1 SGP       0.410400
     15 N7          -1.3040     1.8880    -2.8230 nd         1 SGP      -0.586000
     16 C7          -0.5050     0.8320    -3.2470 cd         1 SGP       0.093500
     17 C6          -0.0370     0.4440    -4.6080 c          1 SGP       0.522500
     18 O6          -0.3050     1.0270    -5.6490 o          1 SGP      -0.506000
     19 N1           0.7530    -0.6700    -4.5840 ns         1 SGP      -0.457400
     20 C10          1.0650    -1.3330    -3.4540 cd         1 SGP       0.745800
     21 N2           1.8450    -2.3900    -3.5670 nv         1 SGP      -1.044200
     22 N3           0.6870    -1.0470    -2.2320 nc         1 SGP      -0.719100
     23 C9          -0.1230     0.0700    -2.1690 cc         1 SGP       0.164400
     24 HOP1         2.4730    -0.9710     1.9600 ho         1 SGP       0.299000
     25 HO5         -4.2660    -2.4550     2.8790 ho         1 SGP       0.514000
     26 H5'1        -2.8970    -0.8550     3.9190 h1         1 SGP       0.034200
     27 H5'2        -3.7340    -0.2490     2.4790 h1         1 SGP       0.034200
     28 H4          -0.9100    -1.4240     2.4000 h1         1 SGP       0.088700
     29 H3          -1.7820     1.4610     3.0630 h1         1 SGP       0.112700
     30 H2          -0.6330     2.3200     1.0940 h1         1 SGP       0.123700
     31 H1           0.2990    -0.5120     0.3210 h2         1 SGP       0.104700
     32 H8          -1.9390     2.3960    -0.8280 h5         1 SGP       0.063100
     33 HN1          1.0890    -1.0040    -5.4720 hn         1 SGP       0.325500
     34 HN21         2.1880    -2.7220    -2.6750 hn         1 SGP       0.504000
     35 HN22         2.5280    -2.3810    -4.3130 hn         1 SGP       0.504000
@<TRIPOS>BOND
     1     1     2 2   
     2     1     3 1   
     3     1     9 1   
     4     1    11 1   
     5     3    24 1   
     6     4     5 1   
     7     4    25 1   
     8     5     6 1   
     9     5    26 1   
    10     5    27 1   
    11     6     7 1   
    12     6     8 1   
    13     6    28 1   
    14     7    12 1   
    15     8     9 1   
    16     8    10 1   
    17     8    29 1   
    18    10    11 1   
    19    10    12 1   
    20    10    30 1   
    21    12    13 1   
    22    12    31 1   
    23    13    14 1   
    24    13    23 1   
    25    14    15 2   
    26    14    32 1   
    27    15    16 1   
    28    16    17 1   
    29    16    23 2   
    30    17    18 2   
    31    17    19 1   
    32    19    20 1   
    33    19    33 1   
    34    20    21 1   
    35    20    22 2   
    36    21    34 1   
    37    21    35 1   
    38    22    23 1   
@<TRIPOS>SUBSTRUCTURE
     1 SGP         1 TEMP              0 ****  ****    0 ROOT
