@<TRIPOS>MOLECULE
SGR
   22    21     1     0     0
SMALL
No Charge or Current Charge


@<TRIPOS>ATOM
      1 N            0.7770    -0.7650     4.4890 n8         1 SGR      -0.983200
      2 CA           0.2260     0.2400     3.4880 c3         1 SGR       0.011500
      3 C           -0.3840     1.5600     4.1060 c          1 SGR       0.744000
      4 O           -1.4120     1.4740     4.7690 o          1 SGR      -0.729500
      5 CB          -0.8160    -0.4250     2.5370 c3         1 SGR       0.199600
      6 OG          -1.0970     0.4100     1.3990 os         1 SGR      -0.586400
      7 N4          -1.0620     1.1950    -0.8820 n8         1 SGR      -1.118300
      8 P1          -0.0580     0.5530     0.1900 p5         1 SGR       1.311100
      9 O5           0.5490    -0.6770    -0.3690 o          1 SGR      -0.583000
     10 O2           0.9010     1.7640     0.6310 os         1 SGR      -0.603400
     11 C3           0.4790     3.1340     0.5610 c3         1 SGR       0.205900
     12 OXT          0.2580     2.6000     4.0150 o          1 SGR      -0.729500
     13 H            1.0420    -1.6320     4.0050 hn         1 SGR       0.374500
     14 HBC1        -1.7420    -0.6290     3.0900 h1         1 SGR       0.020700
     15 HBC2        -0.4250    -1.3930     2.1960 h1         1 SGR       0.020700
     16 H4N1        -1.8520     1.2440    -0.2400 hn         1 SGR       0.457000
     17 H4N2        -1.2550     0.3700    -1.4450 hn         1 SGR       0.457000
     18 H3C1        -0.5150     3.2670     1.0090 h1         1 SGR       0.034700
     19 H3C2         0.4450     3.4830    -0.4800 h1         1 SGR       0.034700
     20 H3C3         1.1820     3.7760     1.1070 h1         1 SGR       0.034700
     21 H1           1.0840     0.5510     2.8790 h1         1 SGR       0.051700
     22 H2           0.0240    -1.0530     5.1260 hn         1 SGR       0.374500
@<TRIPOS>BOND
     1     1     2 1   
     2     1    13 1   
     3     1    22 1   
     4     2     3 1   
     5     2     5 1   
     6     2    21 1   
     7     3     4 1   
     8     3    12 1   
     9     5     6 1   
    10     5    14 1   
    11     5    15 1   
    12     6     8 1   
    13     7     8 1   
    14     7    16 1   
    15     7    17 1   
    16     8     9 2   
    17     8    10 1   
    18    10    11 1   
    19    11    18 1   
    20    11    19 1   
    21    11    20 1   
@<TRIPOS>SUBSTRUCTURE
     1 SGR         1 TEMP              0 ****  ****    0 ROOT
