@<TRIPOS>MOLECULE
SGR
   22    21     1     0     0
SMALL
abcg2


@<TRIPOS>ATOM
      1 N            0.6330    -0.3670     4.9310 n8         1 SGR      -0.983200
      2 CA           0.0760     0.5480     3.9430 c3         1 SGR       0.011500
      3 C           -1.3280     0.9840     4.4200 c          1 SGR       0.744000
      4 O           -2.1680     0.0640     4.5050 o          1 SGR      -0.729500
      5 CB          -0.0020    -0.1040     2.5710 c3         1 SGR       0.199600
      6 OG          -0.5980     0.8310     1.6590 os         1 SGR      -0.586400
      7 N4          -1.7400     1.6300    -0.4000 n8         1 SGR      -1.118300
      8 P1          -0.5720     0.5570     0.0840 p5         1 SGR       1.311100
      9 O5          -0.6380    -0.8710    -0.3050 o          1 SGR      -0.583000
     10 O2           0.7930     1.1770    -0.4840 os         1 SGR      -0.603400
     11 C3           1.2130     2.5020    -0.1620 c3         1 SGR       0.205900
     12 OXT         -1.5030     2.1850     4.6900 o          1 SGR      -0.729500
     13 H            1.5250    -0.7290     4.6140 hn         1 SGR       0.374500
     14 HBC1        -0.6140    -1.0070     2.6240 h1         1 SGR       0.020700
     15 HBC2         0.9990    -0.3870     2.2320 h1         1 SGR       0.020700
     16 H4N1        -2.6510     1.5020     0.0220 hn         1 SGR       0.457000
     17 H4N2        -1.8350     1.7340    -1.4020 hn         1 SGR       0.457000
     18 H3C1         1.5200     2.5760     0.8810 h1         1 SGR       0.034700
     19 H3C2         0.4260     3.2320    -0.3540 h1         1 SGR       0.034700
     20 H3C3         2.0660     2.7300    -0.7970 h1         1 SGR       0.034700
     21 H1           0.7310     1.4220     3.8820 h1         1 SGR       0.051700
     22 H2           0.0150    -1.1630     5.0270 hn         1 SGR       0.374500
@<TRIPOS>BOND
     1     1     2 1   
     2     1    13 1   
     3     1    22 1   
     4     2     3 1   
     5     2     5 1   
     6     2    21 1   
     7     3     4 1   
     8     3    12 1   
     9     5     6 1   
    10     5    14 1   
    11     5    15 1   
    12     6     8 1   
    13     7     8 1   
    14     7    16 1   
    15     7    17 1   
    16     8     9 2   
    17     8    10 1   
    18    10    11 1   
    19    11    18 1   
    20    11    19 1   
    21    11    20 1   
@<TRIPOS>SUBSTRUCTURE
     1 SGR         1 TEMP              0 ****  ****    0 ROOT
