@<TRIPOS>MOLECULE
SGS
   49    50     1     0     0
SMALL
No Charge or Current Charge


@<TRIPOS>ATOM
      1 O5          -3.5090     0.8060     0.5270 os         1 SGS      -0.451000
      2 C1          -3.1030    -0.1080    -0.5100 c6         1 SGS       0.368300
      3 O1          -1.7160    -0.4260    -0.3370 os         1 SGS      -0.450100
      4 C13         -0.7650     0.5020    -0.6470 c          1 SGS       0.608300
      5 O32         -0.9910     1.5860    -1.1650 o          1 SGS      -0.464000
      6 C21          0.5950    -0.0080    -0.3350 ce         1 SGS      -0.282200
      7 C25          1.7530     0.6800    -0.5630 cf         1 SGS      -0.063200
      8 C26          3.1520     0.2840    -0.2970 ca         1 SGS      -0.051800
      9 C27          4.1920     1.1760    -0.6250 ca         1 SGS      -0.162500
     10 C28          5.5390     0.8310    -0.3850 ca         1 SGS       0.096100
     11 O5A          6.5880     1.6820    -0.6940 os         1 SGS      -0.341100
     12 C7           6.3810     2.9800    -1.2810 c3         1 SGS       0.151400
     13 C29          5.8500    -0.4190     0.1880 ca         1 SGS       0.102100
     14 O35          7.1670    -0.7370     0.4140 oh         1 SGS      -0.510100
     15 C30          4.8170    -1.3240     0.5220 ca         1 SGS       0.096100
     16 O37          5.1570    -2.5450     1.0840 os         1 SGS      -0.341100
     17 C38          4.1750    -3.5300     1.4560 c3         1 SGS       0.151400
     18 C31          3.4720    -0.9650     0.2760 ca         1 SGS      -0.162500
     19 C2          -3.9660    -1.4090    -0.4180 c6         1 SGS       0.110300
     20 O13         -3.5900    -2.4020    -1.4050 oh         1 SGS      -0.720000
     21 C3          -5.4620    -1.0210    -0.5770 c6         1 SGS       0.137300
     22 O3          -6.2940    -2.1900    -0.4680 oh         1 SGS      -0.665000
     23 C4          -5.8580     0.0410     0.4930 c6         1 SGS       0.142300
     24 O4          -7.2340     0.4250     0.3080 oh         1 SGS      -0.716000
     25 C5          -4.8840     1.2620     0.4030 c6         1 SGS       0.181300
     26 C6          -5.1580     2.3240     1.5200 c3         1 SGS       0.172600
     27 O6          -4.2410     3.4380     1.4900 oh         1 SGS      -0.705000
     28 H18         -3.2520     0.3540    -1.4990 h2         1 SGS       0.065700
     29 H1           0.6210    -1.0000     0.1050 ha         1 SGS       0.196000
     30 H2           1.6540     1.6740    -1.0080 ha         1 SGS       0.193000
     31 H3           3.9380     2.1360    -1.0660 ha         1 SGS       0.123500
     32 H7           5.7730     3.6140    -0.6230 h1         1 SGS       0.042700
     33 H6           5.8780     2.8930    -2.2520 h1         1 SGS       0.042700
     34 H5           7.3430     3.4820    -1.4410 h1         1 SGS       0.042700
     35 H9           7.7010     0.0300     0.1090 ho         1 SGS       0.479000
     36 H10          3.4880    -3.1290     2.2120 h1         1 SGS       0.042700
     37 H11          3.5930    -3.8500     0.5830 h1         1 SGS       0.042700
     38 H12          4.6660    -4.4150     1.8800 h1         1 SGS       0.042700
     39 H4           2.6720    -1.6510     0.5280 ha         1 SGS       0.123500
     40 H17         -3.8250    -1.8220     0.5920 h1         1 SGS       0.066700
     41 H22         -2.6130    -2.5270    -1.3200 ho         1 SGS       0.522000
     42 H16         -5.5890    -0.5700    -1.5730 h1         1 SGS       0.056700
     43 H20         -5.7860    -2.9000    -0.9270 ho         1 SGS       0.466000
     44 H15         -5.7340    -0.4150     1.4870 h1         1 SGS       0.054700
     45 H19         -7.7050    -0.4180     0.0950 ho         1 SGS       0.525000
     46 H31         -5.0080     1.7550    -0.5720 h1         1 SGS       0.067700
     47 H32         -6.1880     2.6860     1.4040 h1         1 SGS       0.035700
     48 H33         -5.1000     1.8160     2.4930 h1         1 SGS       0.035700
     49 H34         -4.4570     4.0090     2.2640 ho         1 SGS       0.503000
@<TRIPOS>BOND
     1     1     2 1   
     2     1    25 1   
     3     2     3 1   
     4     2    19 1   
     5     2    28 1   
     6     3     4 1   
     7     4     5 2   
     8     4     6 1   
     9     6     7 2   
    10     6    29 1   
    11     7     8 1   
    12     7    30 1   
    13     8     9 ar  
    14     8    18 ar  
    15     9    10 ar  
    16     9    31 1   
    17    10    11 1   
    18    10    13 ar  
    19    11    12 1   
    20    12    32 1   
    21    12    33 1   
    22    12    34 1   
    23    13    14 1   
    24    13    15 ar  
    25    14    35 1   
    26    15    16 1   
    27    15    18 ar  
    28    16    17 1   
    29    17    36 1   
    30    17    37 1   
    31    17    38 1   
    32    18    39 1   
    33    19    20 1   
    34    19    21 1   
    35    19    40 1   
    36    20    41 1   
    37    21    22 1   
    38    21    23 1   
    39    21    42 1   
    40    22    43 1   
    41    23    24 1   
    42    23    25 1   
    43    23    44 1   
    44    24    45 1   
    45    25    26 1   
    46    25    46 1   
    47    26    27 1   
    48    26    47 1   
    49    26    48 1   
    50    27    49 1   
@<TRIPOS>SUBSTRUCTURE
     1 SGS         1 TEMP              0 ****  ****    0 ROOT
