@<TRIPOS>MOLECULE
SGS
   49    50     1     0     0
SMALL
bcc


@<TRIPOS>ATOM
      1 O5          -3.4330     0.8290     0.4980 os         1 SGS      -0.404600
      2 C1          -3.0460    -0.1010    -0.4630 c6         1 SGS       0.321900
      3 O1          -1.7030    -0.4230    -0.2110 os         1 SGS      -0.426900
      4 C13         -0.7420     0.4080    -0.6540 c          1 SGS       0.657300
      5 O32         -0.9740     1.4270    -1.2560 o          1 SGS      -0.513000
      6 C21          0.5820    -0.1100    -0.3030 ce         1 SGS      -0.232200
      7 C25          1.6840     0.5990    -0.5910 cf         1 SGS      -0.013200
      8 C26          3.0610     0.2280    -0.3160 ca         1 SGS      -0.051800
      9 C27          4.0540     1.1720    -0.5800 ca         1 SGS      -0.180500
     10 C28          5.3840     0.8750    -0.3210 ca         1 SGS       0.096100
     11 O5A          6.4250     1.7060    -0.5300 os         1 SGS      -0.317900
     12 C7           6.1650     3.0000    -1.0400 c3         1 SGS       0.128200
     13 C29          5.7370    -0.3740     0.1970 ca         1 SGS       0.102100
     14 O35          7.0110    -0.7050     0.4600 oh         1 SGS      -0.471100
     15 C30          4.7410    -1.3270     0.4520 ca         1 SGS       0.096100
     16 O37          5.1880    -2.4980     0.9370 os         1 SGS      -0.317900
     17 C38          4.2440    -3.5160     1.2010 c3         1 SGS       0.128200
     18 C31          3.4130    -1.0240     0.1990 ca         1 SGS      -0.180500
     19 C2          -3.8580    -1.3850    -0.3170 c6         1 SGS       0.087100
     20 O13         -3.5360    -2.3200    -1.3130 oh         1 SGS      -0.597800
     21 C3          -5.3330    -1.0350    -0.4600 c6         1 SGS       0.114100
     22 O3          -6.1630    -2.1380    -0.1900 oh         1 SGS      -0.602800
     23 C4          -5.7180     0.0770     0.5110 c6         1 SGS       0.119100
     24 O4          -7.0280     0.5280     0.2780 oh         1 SGS      -0.593800
     25 C5          -4.7700     1.2660     0.3380 c6         1 SGS       0.158100
     26 C6          -5.0270     2.3480     1.3640 c3         1 SGS       0.149400
     27 O6          -4.1860     3.4430     1.0940 oh         1 SGS      -0.582800
     28 H18         -3.1630     0.3040    -1.4790 h2         1 SGS       0.065700
     29 H1           0.6240    -1.0690     0.1980 ha         1 SGS       0.146000
     30 H2           1.5550     1.5620    -1.0740 ha         1 SGS       0.143000
     31 H3           3.7690     2.1350    -0.9820 ha         1 SGS       0.141500
     32 H7           5.5210     3.5750    -0.3710 h1         1 SGS       0.042700
     33 H6           5.7030     2.9580    -2.0300 h1         1 SGS       0.042700
     34 H5           7.1270     3.4990    -1.1210 h1         1 SGS       0.042700
     35 H9           7.5960     0.0270     0.2280 ho         1 SGS       0.440000
     36 H10          3.5170    -3.2140     1.9590 h1         1 SGS       0.042700
     37 H11          3.7070    -3.8160     0.2970 h1         1 SGS       0.042700
     38 H12          4.8060    -4.3680     1.5740 h1         1 SGS       0.042700
     39 H4           2.6450    -1.7600     0.3890 ha         1 SGS       0.141500
     40 H17         -3.6860    -1.7880     0.6920 h1         1 SGS       0.066700
     41 H22         -2.7000    -2.7410    -1.0870 ho         1 SGS       0.423000
     42 H16         -5.5030    -0.6610    -1.4830 h1         1 SGS       0.056700
     43 H20         -6.0510    -2.7850    -0.8940 ho         1 SGS       0.427000
     44 H15         -5.6070    -0.3050     1.5380 h1         1 SGS       0.054700
     45 H19         -7.6290    -0.2130     0.4000 ho         1 SGS       0.426000
     46 H31         -4.9110     1.6830    -0.6720 h1         1 SGS       0.067700
     47 H32         -6.0850     2.6270     1.3110 h1         1 SGS       0.035700
     48 H33         -4.8510     1.9340     2.3670 h1         1 SGS       0.035700
     49 H34         -4.4210     4.1530     1.6980 ho         1 SGS       0.404000
@<TRIPOS>BOND
     1     1     2 1   
     2     1    25 1   
     3     2     3 1   
     4     2    19 1   
     5     2    28 1   
     6     3     4 1   
     7     4     5 2   
     8     4     6 1   
     9     6     7 2   
    10     6    29 1   
    11     7     8 1   
    12     7    30 1   
    13     8     9 ar  
    14     8    18 ar  
    15     9    10 ar  
    16     9    31 1   
    17    10    11 1   
    18    10    13 ar  
    19    11    12 1   
    20    12    32 1   
    21    12    33 1   
    22    12    34 1   
    23    13    14 1   
    24    13    15 ar  
    25    14    35 1   
    26    15    16 1   
    27    15    18 ar  
    28    16    17 1   
    29    17    36 1   
    30    17    37 1   
    31    17    38 1   
    32    18    39 1   
    33    19    20 1   
    34    19    21 1   
    35    19    40 1   
    36    20    41 1   
    37    21    22 1   
    38    21    23 1   
    39    21    42 1   
    40    22    43 1   
    41    23    24 1   
    42    23    25 1   
    43    23    44 1   
    44    24    45 1   
    45    25    26 1   
    46    25    46 1   
    47    26    27 1   
    48    26    47 1   
    49    26    48 1   
    50    27    49 1   
@<TRIPOS>SUBSTRUCTURE
     1 SGS         1 TEMP              0 ****  ****    0 ROOT
