@<TRIPOS>MOLECULE
SGU
   18    18     1     0     0
SMALL
No Charge or Current Charge


@<TRIPOS>ATOM
      1 C02         17.8720     7.3820    -9.9350 c5         1 SGU       0.597000
      2 C04         19.1560     8.2490    -9.7800 c5         1 SGU      -0.160400
      3 C05         18.7650     9.2430    -8.6510 c5         1 SGU      -0.112400
      4 C06         17.8080     8.3660    -7.8120 c5         1 SGU       0.166300
      5 C07         18.4950     7.3360    -6.8810 c3         1 SGU      -0.106100
      6 O01         18.1360     6.0220    -9.9060 oh         1 SGU      -0.624500
      7 O03         17.1560     7.7030   -11.0750 oh         1 SGU      -0.624500
      8 O08         17.0370     7.6940    -8.8290 os         1 SGU      -0.511000
      9 H042        20.0180     7.6360    -9.4940 hc         1 SGU       0.069700
     10 H041        19.4300     8.7640   -10.7070 hc         1 SGU       0.069700
     11 H052        19.6280     9.6050    -8.0810 hc         1 SGU       0.058700
     12 H051        18.2400    10.1190    -9.0510 hc         1 SGU       0.058700
     13 H061        17.1340     8.9830    -7.2010 h1         1 SGU       0.067700
     14 H071        19.0650     7.8480    -6.0970 hc         1 SGU       0.044367
     15 H072        17.7490     6.7030    -6.3860 hc         1 SGU       0.044367
     16 H073        19.1910     6.6790    -7.4160 hc         1 SGU       0.044367
     17 H011        17.4090     5.6790    -9.3520 ho         1 SGU       0.459500
     18 H031        16.2440     7.7680   -10.7310 ho         1 SGU       0.459500
@<TRIPOS>BOND
     1     1     2 1   
     2     1     6 1   
     3     1     7 1   
     4     1     8 1   
     5     2     3 1   
     6     2     9 1   
     7     2    10 1   
     8     3     4 1   
     9     3    11 1   
    10     3    12 1   
    11     4     5 1   
    12     4     8 1   
    13     4    13 1   
    14     5    14 1   
    15     5    15 1   
    16     5    16 1   
    17     6    17 1   
    18     7    18 1   
@<TRIPOS>SUBSTRUCTURE
     1 SGU         1 TEMP              0 ****  ****    0 ROOT
