@<TRIPOS>MOLECULE
SGU
   18    18     1     0     0
SMALL
abcg2


@<TRIPOS>ATOM
      1 C02         17.7870     7.3260    -9.9970 c5         1 SGU       0.597000
      2 C04         19.0800     8.1150    -9.7520 c5         1 SGU      -0.160400
      3 C05         18.6900     9.0790    -8.6360 c5         1 SGU      -0.112400
      4 C06         17.7170     8.2370    -7.8010 c5         1 SGU       0.166300
      5 C07         18.3790     7.4480    -6.6850 c3         1 SGU      -0.106100
      6 O01         17.9680     6.0170   -10.4420 oh         1 SGU      -0.624500
      7 O03         16.9690     7.8770   -10.9960 oh         1 SGU      -0.624500
      8 O08         17.1050     7.3250    -8.7510 os         1 SGU      -0.511000
      9 H042        19.8550     7.4240    -9.4160 hc         1 SGU       0.069700
     10 H041        19.4220     8.5970   -10.6640 hc         1 SGU       0.069700
     11 H052        19.5390     9.4250    -8.0490 hc         1 SGU       0.058700
     12 H051        18.1800     9.9540    -9.0440 hc         1 SGU       0.058700
     13 H061        16.9110     8.8470    -7.3900 h1         1 SGU       0.067700
     14 H071        18.7700     8.1310    -5.9270 hc         1 SGU       0.044367
     15 H072        17.6570     6.7830    -6.2080 hc         1 SGU       0.044367
     16 H073        19.2060     6.8460    -7.0680 hc         1 SGU       0.044367
     17 H011        18.5380     5.5610    -9.8090 ho         1 SGU       0.459500
     18 H031        16.7610     8.7870   -10.7510 ho         1 SGU       0.459500
@<TRIPOS>BOND
     1     1     2 1   
     2     1     6 1   
     3     1     7 1   
     4     1     8 1   
     5     2     3 1   
     6     2     9 1   
     7     2    10 1   
     8     3     4 1   
     9     3    11 1   
    10     3    12 1   
    11     4     5 1   
    12     4     8 1   
    13     4    13 1   
    14     5    14 1   
    15     5    15 1   
    16     5    16 1   
    17     6    17 1   
    18     7    18 1   
@<TRIPOS>SUBSTRUCTURE
     1 SGU         1 TEMP              0 ****  ****    0 ROOT
