@<TRIPOS>MOLECULE
SGV
   37    39     1     0     0
SMALL
bcc


@<TRIPOS>ATOM
      1 N1           3.4320    -2.1120    -0.3200 nb         1 SGV      -0.835000
      2 C2           2.3050    -2.8070    -0.4290 ca         1 SGV       0.708900
      3 N3           1.0690    -2.3510    -0.4510 nb         1 SGV      -0.753000
      4 C4           1.0140    -1.0230    -0.3530 ca         1 SGV       0.484800
      5 C5           2.0980    -0.1510    -0.2430 ca         1 SGV      -0.352400
      6 C6           3.3670    -0.7790    -0.2240 ca         1 SGV       0.764200
      7 N6           4.5070    -0.0990    -0.0930 nv         1 SGV      -0.953500
      8 C7           1.5540     1.1770    -0.1600 cc         1 SGV      -0.193400
      9 C8           0.1920     1.0340    -0.2400 cd         1 SGV      -0.079100
     10 N9          -0.1340    -0.2840    -0.3520 na         1 SGV      -0.163100
     11 C1          -1.4780    -0.8260    -0.4220 c5         1 SGV       0.258800
     12 C10          2.2810     2.4530    -0.0930 c          1 SGV       0.723300
     13 N11          1.5660     3.5330     0.2560 nt         1 SGV      -0.665000
     14 O12          3.4800     2.5320    -0.3640 o          1 SGV      -0.644100
     15 C9          -2.1270    -1.0260     0.9530 c5         1 SGV       0.114100
     16 O2          -1.8070    -2.2840     1.4520 oh         1 SGV      -0.539800
     17 C3          -3.6040    -0.7720     0.6370 c5         1 SGV       0.076100
     18 O3          -4.1330    -1.9400     0.0710 oh         1 SGV      -0.557800
     19 C11         -3.4770     0.3660    -0.3730 c5         1 SGV       0.105100
     20 O4          -2.2880     0.0760    -1.1120 os         1 SGV      -0.378600
     21 C12         -3.4060     1.7220     0.3070 c3         1 SGV       0.117400
     22 O5          -3.0260     2.6870    -0.6430 oh         1 SGV      -0.576800
     23 H2           2.4230    -3.8820    -0.5090 h5         1 SGV       0.043100
     24 HN6          5.3810    -0.5860    -0.1970 hn         1 SGV       0.458800
     25 HN6A         4.4840     0.9090    -0.1820 hn         1 SGV       0.458800
     26 H8          -0.5770     1.7890    -0.2830 h4         1 SGV       0.177000
     27 H1          -1.4020    -1.7820    -0.9500 h2         1 SGV       0.134700
     28 HN11         0.6420     3.4700     0.6450 hn         1 SGV       0.311000
     29 HN1A         2.0220     4.4290     0.3190 hn         1 SGV       0.311000
     30 H6          -1.7820    -0.2280     1.6240 h1         1 SGV       0.041700
     31 HO2         -2.0770    -2.3250     2.3750 ho         1 SGV       0.410000
     32 H3          -4.1650    -0.4590     1.5280 h1         1 SGV       0.048700
     33 HO3         -5.0550    -1.7790    -0.1530 ho         1 SGV       0.407000
     34 H4          -4.3080     0.3710    -1.0850 h1         1 SGV       0.090700
     35 H5          -4.3970     1.9290     0.7300 h1         1 SGV       0.020700
     36 H5'A        -2.7050     1.6970     1.1530 h1         1 SGV       0.020700
     37 HO5         -3.0160     3.5450    -0.2080 ho         1 SGV       0.404000
@<TRIPOS>BOND
     1     1     2 ar  
     2     1     6 ar  
     3     2     3 ar  
     4     2    23 1   
     5     3     4 ar  
     6     4     5 ar  
     7     4    10 1   
     8     5     6 ar  
     9     5     8 1   
    10     6     7 1   
    11     7    24 1   
    12     7    25 1   
    13     8     9 2   
    14     8    12 1   
    15     9    10 1   
    16     9    26 1   
    17    10    11 1   
    18    11    15 1   
    19    11    20 1   
    20    11    27 1   
    21    12    13 1   
    22    12    14 2   
    23    13    28 1   
    24    13    29 1   
    25    15    16 1   
    26    15    17 1   
    27    15    30 1   
    28    16    31 1   
    29    17    18 1   
    30    17    19 1   
    31    17    32 1   
    32    18    33 1   
    33    19    20 1   
    34    19    21 1   
    35    19    34 1   
    36    21    22 1   
    37    21    35 1   
    38    21    36 1   
    39    22    37 1   
@<TRIPOS>SUBSTRUCTURE
     1 SGV         1 TEMP              0 ****  ****    0 ROOT
