@<TRIPOS>MOLECULE
SGV
   37    39     1     0     0
SMALL
No Charge or Current Charge


@<TRIPOS>ATOM
      1 N1           3.4250    -1.8400     0.5980 nb         1 SGV      -0.309000
      2 C2           2.3260    -2.6230     0.5210 ca         1 SGV       0.182900
      3 N3           1.0790    -2.2310     0.1740 nb         1 SGV      -0.227000
      4 C4           0.9230    -0.9270    -0.1330 ca         1 SGV       0.156500
      5 C5           1.9910    -0.0570    -0.0970 ca         1 SGV      -0.221800
      6 C6           3.2510    -0.5480     0.2910 ca         1 SGV       0.435900
      7 N6           4.3560     0.2200     0.3970 nv         1 SGV      -1.063900
      8 C7           1.5180     1.2530    -0.5030 cc         1 SGV      -0.193400
      9 C8           0.1570     1.0990    -0.7500 cd         1 SGV      -0.129100
     10 N9          -0.2280    -0.2460    -0.5130 na         1 SGV      -0.192400
     11 C1          -1.5760    -0.8180    -0.6770 c5         1 SGV       0.311300
     12 C10          2.2740     2.5290    -0.6830 c          1 SGV       0.656300
     13 N11          1.5450     3.5980    -1.0630 nt         1 SGV      -0.598000
     14 O12          3.4750     2.6640    -0.5210 o          1 SGV      -0.644100
     15 C9          -2.1980    -1.5030     0.6020 c5         1 SGV       0.137300
     16 O2          -2.2820    -2.9300     0.5270 oh         1 SGV      -0.662000
     17 C3          -3.6470    -0.9230     0.6370 c5         1 SGV       0.099300
     18 O3          -4.5340    -1.7280    -0.1690 oh         1 SGV      -0.680000
     19 C11         -3.4020     0.4950     0.0370 c5         1 SGV       0.128300
     20 O4          -2.5190     0.2130    -1.0770 os         1 SGV      -0.425000
     21 C12         -2.7620     1.5100     1.0390 c3         1 SGV       0.140600
     22 O5          -2.6860     2.8270     0.4690 oh         1 SGV      -0.699000
     23 H2           2.4550    -3.6750     0.7690 h5         1 SGV       0.043100
     24 HN6          5.2650    -0.2300     0.3650 hn         1 SGV       0.514000
     25 HN6A         4.2910     1.1750     0.0300 hn         1 SGV       0.514000
     26 H8          -0.5710     1.8330    -1.0850 h4         1 SGV       0.227000
     27 H1          -1.4850    -1.5540    -1.4850 h2         1 SGV       0.134700
     28 HN11         0.5510     3.5110    -1.1990 hn         1 SGV       0.311000
     29 HN1A         2.0090     4.4820    -1.2000 hn         1 SGV       0.311000
     30 H6          -1.6420    -1.2030     1.5010 h1         1 SGV       0.041700
     31 HO2         -3.2000    -3.0710     0.1800 ho         1 SGV       0.509000
     32 H3          -4.0250    -0.8600     1.6670 h1         1 SGV       0.048700
     33 HO3         -5.4200    -1.2930    -0.1650 ho         1 SGV       0.506000
     34 H4          -4.3340     0.9350    -0.3420 h1         1 SGV       0.090700
     35 H5          -3.3870     1.5360     1.9420 h1         1 SGV       0.020700
     36 H5'A        -1.7660     1.1670     1.3460 h1         1 SGV       0.020700
     37 HO5         -2.3760     3.4350     1.1810 ho         1 SGV       0.503000
@<TRIPOS>BOND
     1     1     2 ar  
     2     1     6 ar  
     3     2     3 ar  
     4     2    23 1   
     5     3     4 ar  
     6     4     5 ar  
     7     4    10 1   
     8     5     6 ar  
     9     5     8 1   
    10     6     7 1   
    11     7    24 1   
    12     7    25 1   
    13     8     9 2   
    14     8    12 1   
    15     9    10 1   
    16     9    26 1   
    17    10    11 1   
    18    11    15 1   
    19    11    20 1   
    20    11    27 1   
    21    12    13 1   
    22    12    14 2   
    23    13    28 1   
    24    13    29 1   
    25    15    16 1   
    26    15    17 1   
    27    15    30 1   
    28    16    31 1   
    29    17    18 1   
    30    17    19 1   
    31    17    32 1   
    32    18    33 1   
    33    19    20 1   
    34    19    21 1   
    35    19    34 1   
    36    21    22 1   
    37    21    35 1   
    38    21    36 1   
    39    22    37 1   
@<TRIPOS>SUBSTRUCTURE
     1 SGV         1 TEMP              0 ****  ****    0 ROOT
