@<TRIPOS>MOLECULE
SGW
   32    34     1     0     0
SMALL
bcc


@<TRIPOS>ATOM
      1 C1          -4.9340     0.4690     0.0910 ca         1 SGW      -0.110000
      2 C2          -4.5540    -0.8710    -0.0420 ca         1 SGW      -0.193000
      3 C3          -3.2170    -1.2170    -0.0720 ca         1 SGW       0.133100
      4 C4          -2.2230    -0.2120     0.0310 ca         1 SGW      -0.016800
      5 C5          -2.6330     1.1240     0.1650 ca         1 SGW      -0.133600
      6 C6          -3.9900     1.4630     0.1960 ca         1 SGW      -0.102000
      7 C11         -1.6330     2.1850     0.2880 c          1 SGW       0.713100
      8 N12         -0.3320     1.7620     0.2530 ns         1 SGW      -0.450100
      9 O13         -1.9010     3.3710     0.4260 o          1 SGW      -0.631500
     10 C14          1.5380     0.2330     0.0470 ca         1 SGW      -0.065800
     11 C15          2.3930     1.1580    -0.5530 ca         1 SGW      -0.103000
     12 C16          3.7590     0.9310    -0.6150 ca         1 SGW      -0.120500
     13 C17          4.2770    -0.2350    -0.0730 ca         1 SGW       0.035400
     14 C18          3.4490    -1.1710     0.5280 ca         1 SGW      -0.120500
     15 C19          2.0870    -0.9300     0.5880 ca         1 SGW      -0.103000
     16 CL           5.9810    -0.5230    -0.1430 cl         1 SGW      -0.101400
     17 CAI          0.0870     0.4630     0.1040 cc         1 SGW       0.098400
     18 CAH         -0.8280    -0.5270    -0.0070 cd         1 SGW      -0.168200
     19 CAA         -3.6920    -3.5320    -0.2860 c3         1 SGW       0.125700
     20 OAB         -2.7590    -2.4730    -0.1930 os         1 SGW      -0.318900
     21 H1          -5.9880     0.7140     0.1130 ha         1 SGW       0.135000
     22 H2          -5.3270    -1.6230    -0.1170 ha         1 SGW       0.136000
     23 H6          -4.2860     2.4970     0.3030 ha         1 SGW       0.158000
     24 HAH         -0.4970    -1.5420    -0.1590 ha         1 SGW       0.160000
     25 H12          0.3640     2.4820     0.3940 hn         1 SGW       0.327500
     26 H15          2.0060     2.0620    -1.0050 ha         1 SGW       0.142500
     27 H19          1.4500    -1.6530     1.0810 ha         1 SGW       0.142500
     28 H16          4.4070     1.6540    -1.0910 ha         1 SGW       0.151500
     29 H18          3.8590    -2.0740     0.9580 ha         1 SGW       0.151500
     30 HAA1        -4.3230    -3.5960     0.6030 h1         1 SGW       0.042367
     31 HAA2        -4.3290    -3.4380    -1.1690 h1         1 SGW       0.042367
     32 HAA3        -3.1100    -4.4470    -0.3690 h1         1 SGW       0.042367
@<TRIPOS>BOND
     1     1     2 ar  
     2     1     6 ar  
     3     1    21 1   
     4     2     3 ar  
     5     2    22 1   
     6     3     4 ar  
     7     3    20 1   
     8     4     5 ar  
     9     4    18 1   
    10     5     6 ar  
    11     5     7 1   
    12     6    23 1   
    13     7     8 1   
    14     7     9 2   
    15     8    17 1   
    16     8    25 1   
    17    10    11 ar  
    18    10    15 ar  
    19    10    17 1   
    20    11    12 ar  
    21    11    26 1   
    22    12    13 ar  
    23    12    28 1   
    24    13    14 ar  
    25    13    16 1   
    26    14    15 ar  
    27    14    29 1   
    28    15    27 1   
    29    17    18 2   
    30    18    24 1   
    31    19    20 1   
    32    19    30 1   
    33    19    31 1   
    34    19    32 1   
@<TRIPOS>SUBSTRUCTURE
     1 SGW         1 TEMP              0 ****  ****    0 ROOT
