@<TRIPOS>MOLECULE
SGW
   32    34     1     0     0
SMALL
No Charge or Current Charge


@<TRIPOS>ATOM
      1 C1          -4.9920     0.4460     0.1470 ca         1 SGW      -0.092000
      2 C2          -4.5810    -0.8850    -0.0330 ca         1 SGW      -0.175000
      3 C3          -3.2050    -1.2020    -0.0880 ca         1 SGW       0.133100
      4 C4          -2.2460    -0.1700     0.0390 ca         1 SGW      -0.016800
      5 C5          -2.6620     1.1700     0.2200 ca         1 SGW      -0.133600
      6 C6          -4.0390     1.4690     0.2730 ca         1 SGW      -0.084000
      7 C11         -1.6290     2.2660     0.3540 c          1 SGW       0.570600
      8 N12         -0.3150     1.8690     0.2880 ns         1 SGW      -0.383100
      9 O13         -1.9200     3.4430     0.5130 o          1 SGW      -0.556000
     10 C14          1.5440     0.2650     0.0520 ca         1 SGW      -0.065800
     11 C15          2.4120     1.0980    -0.6860 ca         1 SGW      -0.085000
     12 C16          3.7880     0.8150    -0.7500 ca         1 SGW      -0.102500
     13 C17          4.3090    -0.2990    -0.0740 ca         1 SGW       0.127000
     14 C18          3.4560    -1.1320     0.6670 ca         1 SGW      -0.102500
     15 C19          2.0790    -0.8520     0.7310 ca         1 SGW      -0.085000
     16 Cl           6.0300    -0.6510    -0.1540 cl         1 SGW      -0.193000
     17 CAI          0.1130     0.5680     0.1180 cc         1 SGW       0.098400
     18 CAH         -0.8030    -0.4500    -0.0120 cd         1 SGW      -0.218200
     19 CAA         -3.6670    -3.6140    -0.4030 c3         1 SGW       0.148900
     20 OAB         -2.7640    -2.5020    -0.2640 os         1 SGW      -0.342100
     21 H1          -6.0530     0.6860     0.1900 ha         1 SGW       0.117000
     22 H2          -5.3430    -1.6530    -0.1270 ha         1 SGW       0.118000
     23 H6          -4.3740     2.4950     0.4120 ha         1 SGW       0.140000
     24 HAH         -0.4550    -1.4650    -0.1740 ha         1 SGW       0.210000
     25 H12          0.3670     2.6080     0.3880 hn         1 SGW       0.327500
     26 H15          2.0210     1.9600    -1.2220 ha         1 SGW       0.124500
     27 H19          1.4330    -1.4980     1.3200 ha         1 SGW       0.124500
     28 H16          4.4510     1.4590    -1.3240 ha         1 SGW       0.133500
     29 H18          3.8620    -1.9920     1.1940 ha         1 SGW       0.133500
     30 HAA1        -4.2970    -3.7180     0.4900 h1         1 SGW       0.042367
     31 HAA2        -4.3140    -3.4840    -1.2790 h1         1 SGW       0.042367
     32 HAA3        -3.1040    -4.5470    -0.5310 h1         1 SGW       0.042367
@<TRIPOS>BOND
     1     1     2 ar  
     2     1     6 ar  
     3     1    21 1   
     4     2     3 ar  
     5     2    22 1   
     6     3     4 ar  
     7     3    20 1   
     8     4     5 ar  
     9     4    18 1   
    10     5     6 ar  
    11     5     7 1   
    12     6    23 1   
    13     7     8 1   
    14     7     9 2   
    15     8    17 1   
    16     8    25 1   
    17    10    11 ar  
    18    10    15 ar  
    19    10    17 1   
    20    11    12 ar  
    21    11    26 1   
    22    12    13 ar  
    23    12    28 1   
    24    13    14 ar  
    25    13    16 1   
    26    14    15 ar  
    27    14    29 1   
    28    15    27 1   
    29    17    18 2   
    30    18    24 1   
    31    19    20 1   
    32    19    30 1   
    33    19    31 1   
    34    19    32 1   
@<TRIPOS>SUBSTRUCTURE
     1 SGW         1 TEMP              0 ****  ****    0 ROOT
