@<TRIPOS>MOLECULE
SGX
   22    21     1     0     0
SMALL
abcg2


@<TRIPOS>ATOM
      1 N           -2.8110    -1.8750     3.4270 n8         1 SGX      -0.982200
      2 CA          -2.5980    -0.4730     3.0910 c3         1 SGX       0.004500
      3 C           -2.8120     0.3770     4.3640 c          1 SGX       0.730000
      4 O           -3.9490     0.2990     4.8710 o          1 SGX      -0.730000
      5 CB          -3.5430    -0.0200     1.9880 c3         1 SGX       0.202600
      6 OG          -3.2610     1.3480     1.6570 os         1 SGX      -0.602400
      7 O1          -5.5850     1.7430     0.5860 o          1 SGX      -0.593000
      8 P2          -4.4420     2.3660     1.2960 p5         1 SGX       1.324100
      9 N3          -3.5510     3.5780     0.5990 n8         1 SGX      -1.118300
     10 O2          -4.9780     3.0070     2.6600 os         1 SGX      -0.591400
     11 C1          -4.1260     3.7070     3.5660 c3         1 SGX       0.203900
     12 OXT         -1.8500     1.0500     4.7800 o          1 SGX      -0.730000
     13 H           -2.7490    -2.4500     2.5950 hn         1 SGX       0.374500
     14 HA1         -4.5740    -0.1480     2.3270 h1         1 SGX       0.023700
     15 HB2         -3.4060    -0.6280     1.0890 h1         1 SGX       0.023700
     16 H3N1        -4.0570     4.4360     0.4280 hn         1 SGX       0.448500
     17 H3N2        -3.0230     3.3180    -0.2230 hn         1 SGX       0.448500
     18 H1C1        -3.8720     4.6930     3.1770 h1         1 SGX       0.042700
     19 H1C2        -3.2100     3.1550     3.7760 h1         1 SGX       0.042700
     20 H1C3        -4.6790     3.8230     4.4940 h1         1 SGX       0.042700
     21 H1          -1.5660    -0.3590     2.7450 h1         1 SGX       0.059700
     22 H2          -3.7520    -1.9860     3.7850 hn         1 SGX       0.374500
@<TRIPOS>BOND
     1     1     2 1   
     2     1    13 1   
     3     1    22 1   
     4     2     3 1   
     5     2     5 1   
     6     2    21 1   
     7     3     4 1   
     8     3    12 1   
     9     5     6 1   
    10     5    14 1   
    11     5    15 1   
    12     6     8 1   
    13     7     8 2   
    14     8     9 1   
    15     8    10 1   
    16     9    16 1   
    17     9    17 1   
    18    10    11 1   
    19    11    18 1   
    20    11    19 1   
    21    11    20 1   
@<TRIPOS>SUBSTRUCTURE
     1 SGX         1 TEMP              0 ****  ****    0 ROOT
