@<TRIPOS>MOLECULE
SGX
   22    21     1     0     0
SMALL
No Charge or Current Charge


@<TRIPOS>ATOM
      1 N           -2.5260     0.2160     3.9390 n8         1 SGX      -0.982200
      2 CA          -3.9670    -0.1390     3.6140 c3         1 SGX       0.004500
      3 C           -4.4860    -1.5300     4.1460 c          1 SGX       0.730000
      4 O           -3.9250    -2.5520     3.7690 o          1 SGX      -0.730000
      5 CB          -4.2680    -0.0670     2.0830 c3         1 SGX       0.202600
      6 OG          -3.8250     1.1730     1.4870 os         1 SGX      -0.602400
      7 O1          -5.6610     2.8040     2.4860 o          1 SGX      -0.593000
      8 P2          -4.2630     2.6090     2.0390 p5         1 SGX       1.324100
      9 N3          -4.0100     3.4180     0.6800 n8         1 SGX      -1.118300
     10 O2          -3.0530     3.0280     3.0140 os         1 SGX      -0.591400
     11 C1          -1.8630     3.6700     2.5300 c3         1 SGX       0.203900
     12 OXT         -5.3970    -1.5330     4.9640 o          1 SGX      -0.730000
     13 H           -2.3310     1.1410     3.5310 hn         1 SGX       0.374500
     14 HA1         -5.3470    -0.1940     1.9280 h1         1 SGX       0.023700
     15 HB2         -3.7680    -0.9060     1.5820 h1         1 SGX       0.023700
     16 H3N1        -4.9670     3.4850     0.3450 hn         1 SGX       0.448500
     17 H3N2        -3.6280     2.6140     0.1840 hn         1 SGX       0.448500
     18 H1C1        -2.0790     4.6870     2.1780 h1         1 SGX       0.042700
     19 H1C2        -1.4120     3.1010     1.7060 h1         1 SGX       0.042700
     20 H1C3        -1.1180     3.7440     3.3330 h1         1 SGX       0.042700
     21 H1          -4.5960     0.6120     4.1090 h1         1 SGX       0.059700
     22 H2          -1.9030    -0.4210     3.4290 hn         1 SGX       0.374500
@<TRIPOS>BOND
     1     1     2 1   
     2     1    13 1   
     3     1    22 1   
     4     2     3 1   
     5     2     5 1   
     6     2    21 1   
     7     3     4 1   
     8     3    12 1   
     9     5     6 1   
    10     5    14 1   
    11     5    15 1   
    12     6     8 1   
    13     7     8 2   
    14     8     9 1   
    15     8    10 1   
    16     9    16 1   
    17     9    17 1   
    18    10    11 1   
    19    11    18 1   
    20    11    19 1   
    21    11    20 1   
@<TRIPOS>SUBSTRUCTURE
     1 SGX         1 TEMP              0 ****  ****    0 ROOT
