@<TRIPOS>MOLECULE
SGZ
   23    24     1     0     0
SMALL
bcc


@<TRIPOS>ATOM
      1 C1          -7.9910    -8.4360    27.3690 ca         1 SGZ      -0.057300
      2 C2          -8.3510    -8.8410    26.1100 ca         1 SGZ      -0.116000
      3 C3          -9.3390    -9.8250    25.9050 ca         1 SGZ      -0.125000
      4 C4          -9.9630   -10.4020    26.9740 ca         1 SGZ      -0.111000
      5 C5          -9.6260   -10.0150    28.2920 ca         1 SGZ      -0.035000
      6 C6          -8.6320    -9.0210    28.4990 ca         1 SGZ      -0.016000
      7 C13         -8.3200    -8.6530    29.8310 ca         1 SGZ      -0.117000
      8 C14         -8.9540    -9.2400    30.8930 ca         1 SGZ      -0.123000
      9 C15         -9.9340   -10.2290    30.6830 ca         1 SGZ      -0.126000
     10 C16        -10.2620   -10.6040    29.4100 ca         1 SGZ      -0.115000
     11 CA          -5.5800    -7.9500    27.9560 c          1 SGZ       0.568900
     12 C           -6.9160    -7.4060    27.5360 c3         1 SGZ      -0.157100
     13 OB          -5.3260    -9.1140    28.1250 o          1 SGZ      -0.496100
     14 H1          -7.8680    -8.3950    25.2490 ha         1 SGZ       0.126000
     15 H2          -9.5970   -10.1180    24.8960 ha         1 SGZ       0.132000
     16 H3         -10.7220   -11.1610    26.8280 ha         1 SGZ       0.131000
     17 H4          -7.5740    -7.8920    30.0240 ha         1 SGZ       0.125000
     18 H5          -8.7000    -8.9430    31.9020 ha         1 SGZ       0.130000
     19 H6         -10.4260   -10.6870    31.5310 ha         1 SGZ       0.131000
     20 H7         -11.0170   -11.3630    29.2390 ha         1 SGZ       0.130000
     21 H8          -4.8080    -7.1730    28.0970 h4         1 SGZ      -0.018800
     22 H9          -6.7440    -6.8700    26.5960 hc         1 SGZ       0.068700
     23 H10         -7.1850    -6.6190    28.2490 hc         1 SGZ       0.068700
@<TRIPOS>BOND
     1     1     2 ar  
     2     1     6 ar  
     3     1    12 1   
     4     2     3 ar  
     5     2    14 1   
     6     3     4 ar  
     7     3    15 1   
     8     4     5 ar  
     9     4    16 1   
    10     5     6 ar  
    11     5    10 ar  
    12     6     7 ar  
    13     7     8 ar  
    14     7    17 1   
    15     8     9 ar  
    16     8    18 1   
    17     9    10 ar  
    18     9    19 1   
    19    10    20 1   
    20    11    12 1   
    21    11    13 2   
    22    11    21 1   
    23    12    22 1   
    24    12    23 1   
@<TRIPOS>SUBSTRUCTURE
     1 SGZ         1 TEMP              0 ****  ****    0 ROOT
