@<TRIPOS>MOLECULE
SGZ
   23    24     1     0     0
SMALL
No Charge or Current Charge


@<TRIPOS>ATOM
      1 C1          -7.9810    -8.4450    27.3660 ca         1 SGZ      -0.057300
      2 C2          -8.3440    -8.8870    26.0770 ca         1 SGZ      -0.098000
      3 C3          -9.3320    -9.8670    25.9040 ca         1 SGZ      -0.107000
      4 C4          -9.9720   -10.4220    27.0200 ca         1 SGZ      -0.093000
      5 C5          -9.6260    -9.9990    28.3150 ca         1 SGZ      -0.035000
      6 C6          -8.6290    -9.0070    28.5020 ca         1 SGZ      -0.016000
      7 C13         -8.3080    -8.6100    29.8230 ca         1 SGZ      -0.099000
      8 C14         -8.9640    -9.1870    30.9240 ca         1 SGZ      -0.105000
      9 C15         -9.9490   -10.1650    30.7260 ca         1 SGZ      -0.108000
     10 C16        -10.2790   -10.5700    29.4240 ca         1 SGZ      -0.097000
     11 CA          -5.5620    -7.9800    27.9400 c          1 SGZ       0.568900
     12 C           -6.8910    -7.3740    27.4810 c3         1 SGZ      -0.157100
     13 OB          -4.8540    -8.6750    27.2200 o          1 SGZ      -0.496100
     14 H1          -7.8550    -8.4700    25.1990 ha         1 SGZ       0.108000
     15 H2          -9.6000   -10.1980    24.9030 ha         1 SGZ       0.114000
     16 H3         -10.7370   -11.1820    26.8760 ha         1 SGZ       0.113000
     17 H4          -7.5530    -7.8560    30.0200 ha         1 SGZ       0.107000
     18 H5          -8.7080    -8.8720    31.9330 ha         1 SGZ       0.112000
     19 H6         -10.4560   -10.6090    31.5800 ha         1 SGZ       0.113000
     20 H7         -11.0440   -11.3300    29.2780 ha         1 SGZ       0.112000
     21 H8          -5.2650    -7.7500    28.9870 h4         1 SGZ      -0.018800
     22 H9          -6.7270    -6.9000    26.5060 hc         1 SGZ       0.068700
     23 H10         -7.1980    -6.5990    28.1920 hc         1 SGZ       0.068700
@<TRIPOS>BOND
     1     1     2 ar  
     2     1     6 ar  
     3     1    12 1   
     4     2     3 ar  
     5     2    14 1   
     6     3     4 ar  
     7     3    15 1   
     8     4     5 ar  
     9     4    16 1   
    10     5     6 ar  
    11     5    10 ar  
    12     6     7 ar  
    13     7     8 ar  
    14     7    17 1   
    15     8     9 ar  
    16     8    18 1   
    17     9    10 ar  
    18     9    19 1   
    19    10    20 1   
    20    11    12 1   
    21    11    13 2   
    22    11    21 1   
    23    12    22 1   
    24    12    23 1   
@<TRIPOS>SUBSTRUCTURE
     1 SGZ         1 TEMP              0 ****  ****    0 ROOT
