@<TRIPOS>MOLECULE
SH0
  106   110     1     0     0
SMALL
No Charge or Current Charge


@<TRIPOS>ATOM
      1 C1          -0.4570     2.8880    -0.2430 ce         1 SH0       0.520600
      2 C2          -1.4330     3.8950     0.3580 c5         1 SH0      -0.114000
      3 C3          -2.7630     3.0940     0.2130 c5         1 SH0      -0.096700
      4 C4          -2.2330     1.6310     0.3640 c5         1 SH0       0.138500
      5 C5          -3.1020     0.5290    -0.3230 c3         1 SH0      -0.042400
      6 C6          -1.7940    -2.6780    -0.3520 ce         1 SH0       0.548900
      7 C7          -3.1920    -2.9630    -0.6560 ce         1 SH0      -0.171800
      8 C8          -3.9650    -1.9230    -0.3090 c2         1 SH0      -0.163400
      9 C9          -3.0070    -0.8930     0.2900 c5         1 SH0       0.151700
     10 C10         -0.7180    -3.6430    -0.0900 ce         1 SH0      -0.453600
     11 C11          0.6010    -3.3560    -0.0740 c2         1 SH0       0.236800
     12 C12          1.6170    -4.3070     0.5310 c5         1 SH0       0.003200
     13 O12         -0.6510     5.2050    -2.5060 o          1 SH0      -0.745000
     14 C13          2.9040    -3.4060     0.3470 c5         1 SH0      -0.085700
     15 O13         -6.2510     3.2010     3.3100 o          1 SH0      -0.783500
     16 C14          2.3120    -1.9360     0.4030 c5         1 SH0       0.319700
     17 C15          3.2850    -0.9640    -0.2450 c2         1 SH0      -0.337200
     18 C16          3.0640     0.3610    -0.2980 c2         1 SH0       0.147800
     19 C17          4.0740     1.3690    -0.9070 c5         1 SH0       0.006200
     20 O17         -2.8960    -4.3700    -3.5000 o          1 SH0      -0.750500
     21 C18          3.4490     2.7810    -0.4440 c5         1 SH0      -0.040500
     22 O18         -8.2810    -2.6130     0.8980 o          1 SH0      -0.784000
     23 C19          2.0150     2.3710    -0.1480 c2         1 SH0       0.175800
     24 O1L          0.9760    -5.6040    -2.4270 o          1 SH0      -0.738500
     25 O1M          7.1680    -4.5610     1.5870 o          1 SH0      -0.791000
     26 O1Q          6.1570     1.6950    -3.4570 o          1 SH0      -0.781500
     27 O1R          4.0740     5.1340     3.5260 o          1 SH0      -0.790500
     28 C20          0.9760     3.2050    -0.3450 ce         1 SH0      -0.398600
     29 N21         -0.8700     1.6590    -0.2400 n2         1 SH0      -0.622900
     30 N22         -1.6410    -1.4670     0.0890 n2         1 SH0      -0.664900
     31 O22         -2.7710     5.4300    -2.2330 o          1 SH0      -0.745000
     32 N23          1.0550    -2.0970    -0.3410 nu         1 SH0      -0.817200
     33 O23         -6.9240     4.3730     1.6390 o          1 SH0      -0.783500
     34 N24          1.9410     1.0410     0.0950 nu         1 SH0      -0.691000
     35 O27         -4.9640    -3.8750    -3.1970 o          1 SH0      -0.750500
     36 O28         -8.1960    -0.4780     0.6770 o          1 SH0      -0.784000
     37 C2A         -1.4340     5.3330    -0.2590 c3         1 SH0      -0.180400
     38 C2B         -1.6360     5.3220    -1.7940 c          1 SH0       0.711000
     39 O2L          3.0970    -5.6810    -2.0920 o          1 SH0      -0.738500
     40 O2M          6.6650    -3.1350     3.1140 o          1 SH0      -0.791000
     41 O2Q          4.6620     3.2310    -3.5560 o          1 SH0      -0.781500
     42 O2R          5.2200     6.1930     2.0490 o          1 SH0      -0.790500
     43 C31         -3.8480     3.5540     1.2370 c3         1 SH0      -0.038400
     44 C32         -5.1970     2.7950     1.2200 c3         1 SH0      -0.201400
     45 C33         -6.2180     3.5030     2.1270 c          1 SH0       0.714000
     46 C41         -5.4760    -1.7590    -0.3860 c3         1 SH0       0.004800
     47 C42         -6.1310    -1.6070     1.0060 c3         1 SH0      -0.195400
     48 C43         -7.6620    -1.5600     0.8620 c          1 SH0       0.726000
     49 C51          4.0740    -3.7390     1.3340 c3         1 SH0      -0.036400
     50 C52          5.4260    -3.0230     1.0890 c3         1 SH0      -0.200400
     51 C53          6.5170    -3.6140     2.0000 c          1 SH0       0.712000
     52 C61          4.1160     3.4550     0.7960 c3         1 SH0      -0.040400
     53 C62          3.4740     4.7920     1.2510 c3         1 SH0      -0.196400
     54 C63          4.3160     5.4360     2.3680 c          1 SH0       0.713000
     55 C7A         -3.6590    -4.3010    -1.2420 c3         1 SH0      -0.142200
     56 C7B         -3.8660    -4.2080    -2.7740 c          1 SH0       0.726000
     57 C81          1.7040    -5.7160    -0.1590 c3         1 SH0      -0.179400
     58 C82          1.9450    -5.6410    -1.6850 c          1 SH0       0.720000
     59 C86          4.0500     1.2040    -2.4690 c3         1 SH0      -0.203400
     60 C87          5.0400     2.1230    -3.2110 c          1 SH0       0.723000
     61 CMA          1.2530    -4.5440     2.0330 c3         1 SH0      -0.074100
     62 CMB          5.5220     1.1120    -0.3850 c3         1 SH0      -0.061100
     63 H2          -1.1880     4.0230     1.4200 hc         1 SH0       0.006700
     64 H3          -3.1880     3.2230    -0.7890 hc         1 SH0       0.077700
     65 H4          -2.1430     1.3850     1.4310 h1         1 SH0       0.026700
     66 H5          -4.1510     0.8300    -0.2850 hc         1 SH0       0.061200
     67 H5A         -2.8700     0.4860    -1.3930 hc         1 SH0       0.061200
     68 H9          -3.1990    -0.8010     1.3680 h1         1 SH0       0.040700
     69 H10         -1.0530    -4.6370     0.1820 ha         1 SH0       0.188000
     70 H13          3.3120    -3.5590    -0.6550 hc         1 SH0       0.104700
     71 H14          2.1070    -1.6480     1.4440 h1         1 SH0       0.002700
     72 H15          4.2080    -1.3470    -0.6690 ha         1 SH0       0.175000
     73 H18          3.4780     3.5180    -1.2520 hc         1 SH0       0.094700
     74 H20          1.1850     4.2400    -0.5970 ha         1 SH0       0.173000
     75 HN23         0.3000    -1.4180    -0.2130 hn         1 SH0       0.547000
     76 HN24         1.0170     0.6260    -0.0360 hn         1 SH0       0.550000
     77 H2A         -2.2510     5.8810     0.2250 hc         1 SH0      -0.001800
     78 H2AA        -0.4510     5.7570    -0.0200 hc         1 SH0      -0.001800
     79 H31         -3.4370     3.4950     2.2530 hc         1 SH0       0.011200
     80 H31A        -4.0620     4.6150     1.0630 hc         1 SH0       0.011200
     81 H32         -5.5430     2.8080     0.1800 hc         1 SH0       0.040200
     82 H32A        -4.9850     1.7940     1.6130 hc         1 SH0       0.040200
     83 H41         -5.7260    -0.8850    -0.9990 hc         1 SH0       0.039200
     84 H41A        -5.9290    -2.6190    -0.8920 hc         1 SH0       0.039200
     85 H42         -5.8260    -2.4900     1.5800 hc         1 SH0       0.021700
     86 H42A        -5.7540    -0.6620     1.4140 hc         1 SH0       0.021700
     87 H51          3.7650    -3.5180     2.3630 hc         1 SH0       0.015200
     88 H51A         4.2610    -4.8180     1.2980 hc         1 SH0       0.015200
     89 H52          5.6800    -3.1980     0.0370 hc         1 SH0       0.039200
     90 H52A         5.2650    -1.9690     1.3440 hc         1 SH0       0.039200
     91 H61          4.1090     2.7600     1.6450 hc         1 SH0       0.032700
     92 H61A         5.1690     3.6600     0.5700 hc         1 SH0       0.032700
     93 H62          3.4600     5.4390     0.3660 hc         1 SH0       0.030200
     94 H62A         2.4770     4.5390     1.6310 hc         1 SH0       0.030200
     95 H7A         -2.8780    -5.0400    -1.0310 hc         1 SH0       0.002200
     96 H7AA        -4.6050    -4.5560    -0.7490 hc         1 SH0       0.002200
     97 H81          2.5420    -6.2390     0.3180 hc         1 SH0       0.001700
     98 H81A         0.7400    -6.2070     0.0250 hc         1 SH0       0.001700
     99 H86          4.3180     0.1630    -2.6780 hc         1 SH0       0.061200
    100 H86A         3.0310     1.4520    -2.7860 hc         1 SH0       0.061200
    101 HMA          0.2830    -5.0430     2.1410 hc         1 SH0       0.006367
    102 HMAA         1.9930    -5.1790     2.5340 hc         1 SH0       0.006367
    103 HMAB         1.1950    -3.6000     2.5870 hc         1 SH0       0.006367
    104 HMB          5.9420     0.1840    -0.7910 hc         1 SH0       0.022367
    105 HMBA         6.2040     1.9240    -0.6620 hc         1 SH0       0.022367
    106 HMBB         5.5420     1.0200     0.7070 hc         1 SH0       0.022367
@<TRIPOS>BOND
     1     1     2 1   
     2     1    28 1   
     3     1    29 2   
     4     2     3 1   
     5     2    37 1   
     6     2    63 1   
     7     3     4 1   
     8     3    43 1   
     9     3    64 1   
    10     4     5 1   
    11     4    29 1   
    12     4    65 1   
    13     5     9 1   
    14     5    66 1   
    15     5    67 1   
    16     6     7 1   
    17     6    10 1   
    18     6    30 2   
    19     7     8 2   
    20     7    55 1   
    21     8     9 1   
    22     8    46 1   
    23     9    30 1   
    24     9    68 1   
    25    10    11 2   
    26    10    69 1   
    27    11    12 1   
    28    11    32 1   
    29    12    14 1   
    30    12    57 1   
    31    12    61 1   
    32    13    38 1   
    33    14    16 1   
    34    14    49 1   
    35    14    70 1   
    36    15    45 1   
    37    16    17 1   
    38    16    32 1   
    39    16    71 1   
    40    17    18 2   
    41    17    72 1   
    42    18    19 1   
    43    18    34 1   
    44    19    21 1   
    45    19    59 1   
    46    19    62 1   
    47    20    56 1   
    48    21    23 1   
    49    21    52 1   
    50    21    73 1   
    51    22    48 1   
    52    23    28 2   
    53    23    34 1   
    54    24    58 1   
    55    25    51 1   
    56    26    60 1   
    57    27    54 1   
    58    28    74 1   
    59    31    38 1   
    60    32    75 1   
    61    33    45 1   
    62    34    76 1   
    63    35    56 1   
    64    36    48 1   
    65    37    38 1   
    66    37    77 1   
    67    37    78 1   
    68    39    58 1   
    69    40    51 1   
    70    41    60 1   
    71    42    54 1   
    72    43    44 1   
    73    43    79 1   
    74    43    80 1   
    75    44    45 1   
    76    44    81 1   
    77    44    82 1   
    78    46    47 1   
    79    46    83 1   
    80    46    84 1   
    81    47    48 1   
    82    47    85 1   
    83    47    86 1   
    84    49    50 1   
    85    49    87 1   
    86    49    88 1   
    87    50    51 1   
    88    50    89 1   
    89    50    90 1   
    90    52    53 1   
    91    52    91 1   
    92    52    92 1   
    93    53    54 1   
    94    53    93 1   
    95    53    94 1   
    96    55    56 1   
    97    55    95 1   
    98    55    96 1   
    99    57    58 1   
   100    57    97 1   
   101    57    98 1   
   102    59    60 1   
   103    59    99 1   
   104    59   100 1   
   105    61   101 1   
   106    61   102 1   
   107    61   103 1   
   108    62   104 1   
   109    62   105 1   
   110    62   106 1   
@<TRIPOS>SUBSTRUCTURE
     1 SH0         1 TEMP              0 ****  ****    0 ROOT
