@<TRIPOS>MOLECULE
SH0
  106   110     1     0     0
SMALL
abcg2


@<TRIPOS>ATOM
      1 C1          -0.5110     2.9440     0.0730 ce         1 SH0       0.520600
      2 C2          -1.6060     3.9760    -0.0150 c5         1 SH0      -0.114000
      3 C3          -2.8700     3.1150     0.0360 c5         1 SH0      -0.096700
      4 C4          -2.3530     1.7430     0.5210 c5         1 SH0       0.138500
      5 C5          -2.9860     0.5790    -0.2380 c3         1 SH0      -0.042400
      6 C6          -1.7110    -2.5960    -0.0980 ce         1 SH0       0.548900
      7 C7          -3.1220    -2.9130    -0.3820 ce         1 SH0      -0.171800
      8 C8          -3.8300    -1.8190    -0.0650 c2         1 SH0      -0.163400
      9 C9          -2.8640    -0.7820     0.4470 c5         1 SH0       0.151700
     10 C10         -0.6530    -3.5470    -0.2340 ce         1 SH0      -0.453600
     11 C11          0.6430    -3.2570     0.0950 c2         1 SH0       0.236800
     12 C12          1.7540    -4.2620     0.2730 c5         1 SH0       0.003200
     13 O12         -1.2810     3.1280    -2.6840 o          1 SH0      -0.745000
     14 C13          3.0130    -3.3680     0.3920 c5         1 SH0      -0.085700
     15 O13         -6.0590     4.3300     2.7180 o          1 SH0      -0.783500
     16 C14          2.4820    -1.9830     0.8280 c5         1 SH0       0.319700
     17 C15          3.2680    -0.8740     0.1760 c2         1 SH0      -0.337200
     18 C16          2.9760     0.4100    -0.0420 c2         1 SH0       0.147800
     19 C17          3.9050     1.4010    -0.7420 c5         1 SH0       0.006200
     20 O17         -3.2140    -5.7250    -2.7000 o          1 SH0      -0.750500
     21 C18          3.3630     2.7550    -0.2140 c5         1 SH0      -0.040500
     22 O18         -7.9960    -1.0280     2.3350 o          1 SH0      -0.784000
     23 C19          1.9080     2.4390    -0.0200 c2         1 SH0       0.175800
     24 O1L          1.9660    -3.5800    -2.5100 o          1 SH0      -0.738500
     25 O1M          7.6840    -3.1860     1.9520 o          1 SH0      -0.791000
     26 O1Q          4.2580     1.8840    -4.4370 o          1 SH0      -0.781500
     27 O1R          5.0880     4.4430     3.3720 o          1 SH0      -0.790500
     28 C20          0.8720     3.3050    -0.1040 ce         1 SH0      -0.398600
     29 N21         -0.9020     1.7680     0.4060 n2         1 SH0      -0.622900
     30 N22         -1.5530    -1.3810     0.3480 n2         1 SH0      -0.664900
     31 O22         -1.4860     5.1810    -3.5240 o          1 SH0      -0.745000
     32 N23          1.0830    -2.0480     0.4540 nu         1 SH0      -0.817200
     33 O23         -7.5530     3.2580     1.4650 o          1 SH0      -0.783500
     34 N24          1.8080     1.1060     0.2420 nu         1 SH0      -0.691000
     35 O27         -2.9760    -3.5440    -3.0940 o          1 SH0      -0.750500
     36 O28         -8.0560    -1.1600     0.1130 o          1 SH0      -0.784000
     37 C2A         -1.5270     4.9630    -1.1690 c3         1 SH0      -0.180400
     38 C2B         -1.4270     4.3600    -2.5810 c          1 SH0       0.711000
     39 O2L          1.9740    -5.7100    -3.1570 o          1 SH0      -0.738500
     40 O2M          6.3650    -4.8210     2.6890 o          1 SH0      -0.791000
     41 O2Q          5.0210     3.1710    -2.7930 o          1 SH0      -0.781500
     42 O2R          3.8650     6.2910     3.1680 o          1 SH0      -0.790500
     43 C31         -3.9660     3.7300     0.9020 c3         1 SH0      -0.038400
     44 C32         -5.2530     2.9200     0.9720 c3         1 SH0      -0.201400
     45 C33         -6.3870     3.5680     1.7840 c          1 SH0       0.714000
     46 C41         -5.3040    -1.6080    -0.1430 c3         1 SH0       0.004800
     47 C42         -5.9290    -1.2480     1.2020 c3         1 SH0      -0.195400
     48 C43         -7.4640    -1.1370     1.2100 c          1 SH0       0.726000
     49 C51          4.1170    -3.9340     1.2810 c3         1 SH0      -0.036400
     50 C52          5.4250    -3.1580     1.2430 c3         1 SH0      -0.200400
     51 C53          6.5890    -3.7840     2.0330 c          1 SH0       0.712000
     52 C61          4.0130     3.2230     1.0960 c3         1 SH0      -0.040400
     53 C62          3.4970     4.5650     1.5880 c3         1 SH0      -0.196400
     54 C63          4.2210     5.1450     2.8160 c          1 SH0       0.713000
     55 C7A         -3.5820    -4.2320    -0.8900 c3         1 SH0      -0.142200
     56 C7B         -3.2080    -4.5220    -2.3630 c          1 SH0       0.726000
     57 C81          1.8390    -5.3000    -0.8400 c3         1 SH0      -0.179400
     58 C82          1.9330    -4.8050    -2.2940 c          1 SH0       0.720000
     59 C86          3.6260     1.2740    -2.2520 c3         1 SH0      -0.203400
     60 C87          4.3800     2.1960    -3.2330 c          1 SH0       0.723000
     61 CMA          1.4530    -4.9990     1.5900 c3         1 SH0      -0.074100
     62 CMB          5.3750     1.1310    -0.4500 c3         1 SH0      -0.061100
     63 H2          -1.5420     4.5660     0.9120 hc         1 SH0       0.006700
     64 H3          -3.2500     2.9980    -0.9850 hc         1 SH0       0.077700
     65 H4          -2.6110     1.6140     1.5850 h1         1 SH0       0.026700
     66 H5          -4.0500     0.8040    -0.3460 hc         1 SH0       0.061200
     67 H5A         -2.5770     0.5330    -1.2510 hc         1 SH0       0.061200
     68 H9          -3.0830    -0.6160     1.5160 h1         1 SH0       0.040700
     69 H10         -0.8910    -4.5500    -0.5620 ha         1 SH0       0.188000
     70 H13          3.4030    -3.2470    -0.6210 hc         1 SH0       0.104700
     71 H14          2.5610    -1.8870     1.9230 h1         1 SH0       0.002700
     72 H15          4.2460    -1.1790    -0.1720 ha         1 SH0       0.175000
     73 H18          3.4950     3.5350    -0.9640 hc         1 SH0       0.094700
     74 H20          1.1020     4.3350    -0.3450 ha         1 SH0       0.173000
     75 HN23         0.3810    -1.3250     0.5970 hn         1 SH0       0.547000
     76 HN24         0.8810     0.7240     0.4090 hn         1 SH0       0.550000
     77 H2A         -2.4010     5.6220    -1.1260 hc         1 SH0      -0.001800
     78 H2AA        -0.6700     5.6330    -1.0300 hc         1 SH0      -0.001800
     79 H31         -3.5770     3.8840     1.9130 hc         1 SH0       0.011200
     80 H31A        -4.1910     4.7310     0.5140 hc         1 SH0       0.011200
     81 H32         -5.6140     2.6900    -0.0350 hc         1 SH0       0.040200
     82 H32A        -5.0450     1.9450     1.4320 hc         1 SH0       0.040200
     83 H41         -5.5220    -0.8120    -0.8630 hc         1 SH0       0.039200
     84 H41A        -5.7830    -2.5060    -0.5400 hc         1 SH0       0.039200
     85 H42         -5.6260    -1.9800     1.9580 hc         1 SH0       0.021700
     86 H42A        -5.5290    -0.2900     1.5550 hc         1 SH0       0.021700
     87 H51          3.7660    -3.9910     2.3140 hc         1 SH0       0.015200
     88 H51A         4.3120    -4.9670     0.9740 hc         1 SH0       0.015200
     89 H52          5.7540    -3.0220     0.2060 hc         1 SH0       0.039200
     90 H52A         5.2760    -2.1420     1.6250 hc         1 SH0       0.039200
     91 H61          3.8820     2.4620     1.8720 hc         1 SH0       0.032700
     92 H61A         5.0890     3.3020     0.9270 hc         1 SH0       0.032700
     93 H62          3.5480     5.3000     0.7760 hc         1 SH0       0.030200
     94 H62A         2.4320     4.4970     1.8330 hc         1 SH0       0.030200
     95 H7A         -3.1970    -5.0380    -0.2570 hc         1 SH0       0.002200
     96 H7AA        -4.6730    -4.3010    -0.8140 hc         1 SH0       0.002200
     97 H81          2.6990    -5.9510    -0.6410 hc         1 SH0       0.001700
     98 H81A         0.9710    -5.9640    -0.7690 hc         1 SH0       0.001700
     99 H86          3.8200     0.2370    -2.5470 hc         1 SH0       0.061200
    100 H86A         2.5540     1.4230    -2.4340 hc         1 SH0       0.061200
    101 HMA          0.5020    -5.5290     1.5220 hc         1 SH0       0.006367
    102 HMAA         2.2280    -5.7370     1.8060 hc         1 SH0       0.006367
    103 HMAB         1.3920    -4.3180     2.4420 hc         1 SH0       0.006367
    104 HMB          5.6960     0.2040    -0.9300 hc         1 SH0       0.022367
    105 HMBA         5.9950     1.9330    -0.8430 hc         1 SH0       0.022367
    106 HMBB         5.5690     1.0290     0.6180 hc         1 SH0       0.022367
@<TRIPOS>BOND
     1     1     2 1   
     2     1    28 1   
     3     1    29 2   
     4     2     3 1   
     5     2    37 1   
     6     2    63 1   
     7     3     4 1   
     8     3    43 1   
     9     3    64 1   
    10     4     5 1   
    11     4    29 1   
    12     4    65 1   
    13     5     9 1   
    14     5    66 1   
    15     5    67 1   
    16     6     7 1   
    17     6    10 1   
    18     6    30 2   
    19     7     8 2   
    20     7    55 1   
    21     8     9 1   
    22     8    46 1   
    23     9    30 1   
    24     9    68 1   
    25    10    11 2   
    26    10    69 1   
    27    11    12 1   
    28    11    32 1   
    29    12    14 1   
    30    12    57 1   
    31    12    61 1   
    32    13    38 1   
    33    14    16 1   
    34    14    49 1   
    35    14    70 1   
    36    15    45 1   
    37    16    17 1   
    38    16    32 1   
    39    16    71 1   
    40    17    18 2   
    41    17    72 1   
    42    18    19 1   
    43    18    34 1   
    44    19    21 1   
    45    19    59 1   
    46    19    62 1   
    47    20    56 1   
    48    21    23 1   
    49    21    52 1   
    50    21    73 1   
    51    22    48 1   
    52    23    28 2   
    53    23    34 1   
    54    24    58 1   
    55    25    51 1   
    56    26    60 1   
    57    27    54 1   
    58    28    74 1   
    59    31    38 1   
    60    32    75 1   
    61    33    45 1   
    62    34    76 1   
    63    35    56 1   
    64    36    48 1   
    65    37    38 1   
    66    37    77 1   
    67    37    78 1   
    68    39    58 1   
    69    40    51 1   
    70    41    60 1   
    71    42    54 1   
    72    43    44 1   
    73    43    79 1   
    74    43    80 1   
    75    44    45 1   
    76    44    81 1   
    77    44    82 1   
    78    46    47 1   
    79    46    83 1   
    80    46    84 1   
    81    47    48 1   
    82    47    85 1   
    83    47    86 1   
    84    49    50 1   
    85    49    87 1   
    86    49    88 1   
    87    50    51 1   
    88    50    89 1   
    89    50    90 1   
    90    52    53 1   
    91    52    91 1   
    92    52    92 1   
    93    53    54 1   
    94    53    93 1   
    95    53    94 1   
    96    55    56 1   
    97    55    95 1   
    98    55    96 1   
    99    57    58 1   
   100    57    97 1   
   101    57    98 1   
   102    59    60 1   
   103    59    99 1   
   104    59   100 1   
   105    61   101 1   
   106    61   102 1   
   107    61   103 1   
   108    62   104 1   
   109    62   105 1   
   110    62   106 1   
@<TRIPOS>SUBSTRUCTURE
     1 SH0         1 TEMP              0 ****  ****    0 ROOT
