@<TRIPOS>MOLECULE
SH1
   67    67     1     0     0
SMALL
No Charge or Current Charge


@<TRIPOS>ATOM
      1 C1          -0.8390    -0.3440     4.2270 c3         1 SH1      -0.345400
      2 C2          -1.6410    -1.2940     5.1450 c3         1 SH1       0.003900
      3 C3          -1.0560    -1.3290     6.5500 ca         1 SH1      -0.080300
      4 C4          -1.5680    -0.4860     7.5550 ca         1 SH1      -0.106000
      5 C5           0.0090    -2.2000     6.8530 ca         1 SH1      -0.106000
      6 C6          -1.0240    -0.5160     8.8510 ca         1 SH1      -0.109500
      7 C7           0.5530    -2.2300     8.1490 ca         1 SH1      -0.109500
      8 C8           0.0370    -1.3880     9.1490 ca         1 SH1      -0.109000
      9 S1          -1.4830    -0.2940     2.5510 s6         1 SH1       1.207100
     10 O1          -2.8570     0.2100     2.5620 o          1 SH1      -0.526500
     11 O2          -1.1640    -1.5480     1.8650 o          1 SH1      -0.526500
     12 N1          -0.5780     0.8900     1.8050 n7         1 SH1      -0.888300
     13 C9           0.8900     0.7000     1.5580 c3         1 SH1       0.153500
     14 C10          1.7170     1.2750     2.7480 c3         1 SH1       0.137600
     15 O3           1.0180     2.3710     3.3760 oh         1 SH1      -0.649000
     16 C11          1.3610     1.3470     0.2110 c          1 SH1       0.617100
     17 O4           1.4080     2.5580     0.0240 o          1 SH1      -0.569100
     18 N2           1.7300     0.4530    -0.7780 ns         1 SH1      -0.504900
     19 C12          2.2290     0.8240    -2.1220 c3         1 SH1       0.036700
     20 C13          3.6950     1.3150    -2.0450 c3         1 SH1      -0.110100
     21 C14          2.0680    -0.3690    -3.1110 c          1 SH1       0.592100
     22 O5           1.7330    -1.4920    -2.7520 o          1 SH1      -0.624100
     23 N3           2.3280    -0.0720    -4.4320 ns         1 SH1      -0.486900
     24 C15          2.2670    -1.0230    -5.5490 c3         1 SH1       0.114700
     25 C16          1.0080    -0.7830    -6.4230 c3         1 SH1      -0.086400
     26 C17         -0.3350    -0.9450    -5.6680 c3         1 SH1      -0.096400
     27 C18         -1.5620    -0.7650    -6.5850 c3         1 SH1       0.143800
     28 N4          -2.8020    -0.9540    -5.8130 n2         1 SH1      -0.736900
     29 C19         -3.7240    -0.1050    -5.7280 c2         1 SH1       0.791100
     30 N5          -4.8170    -0.2620    -5.0430 nv         1 SH1      -1.043700
     31 N6          -3.8330     1.0700    -6.2880 nv         1 SH1      -1.043700
     32 C20          3.5850    -0.9760    -6.3720 c3         1 SH1       0.141600
     33 O6           3.8670     0.3590    -6.8300 oh         1 SH1      -0.667000
     34 H1C1         0.1980    -0.6840     4.1580 h1         1 SH1       0.088700
     35 H1C2        -0.8730     0.6790     4.6170 h1         1 SH1       0.088700
     36 H2C1        -2.6910    -0.9750     5.1810 hc         1 SH1       0.066700
     37 H2C2        -1.6430    -2.3060     4.7170 hc         1 SH1       0.066700
     38 H4          -2.3870     0.1960     7.3330 ha         1 SH1       0.113000
     39 H5           0.4160    -2.8520     6.0840 ha         1 SH1       0.113000
     40 H6          -1.4230     0.1380     9.6240 ha         1 SH1       0.113500
     41 H7           1.3760    -2.9050     8.3770 ha         1 SH1       0.113500
     42 H8           0.4580    -1.4120    10.1510 ha         1 SH1       0.113000
     43 H1          -0.6230     1.6390     2.5020 hn         1 SH1       0.518000
     44 H9           1.1370    -0.3670     1.4680 h1         1 SH1       0.088700
     45 H101         1.8900     0.4790     3.4820 h1         1 SH1       0.029700
     46 H102         2.7050     1.5970     2.3900 h1         1 SH1       0.029700
     47 H3           1.6270     2.7590     4.0450 ho         1 SH1       0.452000
     48 H2           1.6160    -0.5350    -0.5750 hn         1 SH1       0.333500
     49 H12          1.6060     1.6400    -2.5120 h1         1 SH1       0.084700
     50 H131         4.3520     0.5160    -1.6800 hc         1 SH1       0.050367
     51 H132         4.0560     1.6320    -3.0310 hc         1 SH1       0.050367
     52 H133         3.7860     2.1710    -1.3660 hc         1 SH1       0.050367
     53 HA           2.6250     0.8740    -4.6430 hn         1 SH1       0.323500
     54 H15          2.1920    -2.0410    -5.1410 h1         1 SH1       0.083700
     55 H161         1.0550     0.2230    -6.8580 hc         1 SH1       0.050700
     56 H162         1.0250    -1.4890    -7.2630 hc         1 SH1       0.050700
     57 H171        -0.3700    -1.9400    -5.2060 hc         1 SH1       0.051700
     58 H172        -0.3890    -0.2100    -4.8550 hc         1 SH1       0.051700
     59 H181        -1.5070     0.2270    -7.0520 h1         1 SH1       0.028700
     60 H182        -1.5080    -1.5080    -7.3930 h1         1 SH1       0.028700
     61 H5N1        -5.0130     0.5710    -4.5080 hn         1 SH1       0.461000
     62 H5N2        -4.7570    -1.0960    -4.4760 hn         1 SH1       0.461000
     63 H6N1        -4.7940     1.2380    -6.5460 hn         1 SH1       0.461000
     64 H6N2        -3.1810     1.1870    -7.0490 hn         1 SH1       0.461000
     65 H201         4.4060    -1.3340    -5.7370 h1         1 SH1       0.031200
     66 H202         3.5040    -1.6660    -7.2230 h1         1 SH1       0.031200
     67 HB           4.7040     0.3160    -7.3460 ho         1 SH1       0.446000
@<TRIPOS>BOND
     1     1     2 1   
     2     1     9 1   
     3     1    34 1   
     4     1    35 1   
     5     2     3 1   
     6     2    36 1   
     7     2    37 1   
     8     3     4 ar  
     9     3     5 ar  
    10     4     6 ar  
    11     4    38 1   
    12     5     7 ar  
    13     5    39 1   
    14     6     8 ar  
    15     6    40 1   
    16     7     8 ar  
    17     7    41 1   
    18     8    42 1   
    19     9    10 2   
    20     9    11 2   
    21     9    12 1   
    22    12    13 1   
    23    12    43 1   
    24    13    14 1   
    25    13    16 1   
    26    13    44 1   
    27    14    15 1   
    28    14    45 1   
    29    14    46 1   
    30    15    47 1   
    31    16    17 2   
    32    16    18 1   
    33    18    19 1   
    34    18    48 1   
    35    19    20 1   
    36    19    21 1   
    37    19    49 1   
    38    20    50 1   
    39    20    51 1   
    40    20    52 1   
    41    21    22 2   
    42    21    23 1   
    43    23    24 1   
    44    23    53 1   
    45    24    25 1   
    46    24    32 1   
    47    24    54 1   
    48    25    26 1   
    49    25    55 1   
    50    25    56 1   
    51    26    27 1   
    52    26    57 1   
    53    26    58 1   
    54    27    28 1   
    55    27    59 1   
    56    27    60 1   
    57    28    29 2   
    58    29    30 1   
    59    29    31 1   
    60    30    61 1   
    61    30    62 1   
    62    31    63 1   
    63    31    64 1   
    64    32    33 1   
    65    32    65 1   
    66    32    66 1   
    67    33    67 1   
@<TRIPOS>SUBSTRUCTURE
     1 SH1         1 TEMP              0 ****  ****    0 ROOT
