@<TRIPOS>MOLECULE
SH1
   67    67     1     0     0
SMALL
abcg2


@<TRIPOS>ATOM
      1 C1          -0.8020     0.0640     4.4220 c3         1 SH1      -0.345400
      2 C2          -1.8480    -0.7490     5.1810 c3         1 SH1       0.003900
      3 C3          -1.2560    -1.2820     6.4570 ca         1 SH1      -0.080300
      4 C4          -1.3890    -0.5760     7.6500 ca         1 SH1      -0.106000
      5 C5          -0.5300    -2.4700     6.4600 ca         1 SH1      -0.106000
      6 C6          -0.8110    -1.0480     8.8210 ca         1 SH1      -0.109500
      7 C7           0.0500    -2.9450     7.6280 ca         1 SH1      -0.109500
      8 C8          -0.0890    -2.2340     8.8130 ca         1 SH1      -0.109000
      9 S1          -1.4880     0.8160     2.9480 s6         1 SH1       1.207100
     10 O1          -2.4420     1.8310     3.3680 o          1 SH1      -0.526500
     11 O2          -1.9260    -0.2530     2.0610 o          1 SH1      -0.526500
     12 N1          -0.2680     1.6030     2.1970 n7         1 SH1      -0.888300
     13 C9           0.7750     0.9000     1.4800 c3         1 SH1       0.153500
     14 C10          2.1120     0.9540     2.2100 c3         1 SH1       0.137600
     15 O3           2.5180     2.2970     2.2540 oh         1 SH1      -0.649000
     16 C11          0.9170     1.4970     0.0740 c          1 SH1       0.617100
     17 O4           0.4480     2.5800    -0.2250 o          1 SH1      -0.569100
     18 N2           1.6090     0.7230    -0.7730 ns         1 SH1      -0.504900
     19 C12          1.9460     1.1240    -2.1170 c3         1 SH1       0.036700
     20 C13          3.2110     1.9830    -2.1590 c3         1 SH1      -0.110100
     21 C14          2.1500    -0.1400    -2.9490 c          1 SH1       0.592100
     22 O5           2.5170    -1.1870    -2.4330 o          1 SH1      -0.624100
     23 N3           1.9310     0.0180    -4.2570 ns         1 SH1      -0.486900
     24 C15          2.1510    -1.0100    -5.2580 c3         1 SH1       0.114700
     25 C16          1.0450    -0.9560    -6.3090 c3         1 SH1      -0.086400
     26 C17         -0.3380    -1.2540    -5.7440 c3         1 SH1      -0.096400
     27 C18         -1.4290    -1.2020    -6.8130 c3         1 SH1       0.143800
     28 N4          -2.7350    -1.5370    -6.3050 n2         1 SH1      -0.736900
     29 C19         -3.4380    -0.6260    -5.7430 c2         1 SH1       0.791100
     30 N5          -4.7230    -0.9180    -5.3330 nv         1 SH1      -1.043700
     31 N6          -3.0640     0.6700    -5.4850 nv         1 SH1      -1.043700
     32 C20          3.5460    -0.9070    -5.8540 c3         1 SH1       0.141600
     33 O6           3.6810     0.3320    -6.5080 oh         1 SH1      -0.667000
     34 H1C1         0.0340    -0.5630     4.1060 h1         1 SH1       0.088700
     35 H1C2        -0.4080     0.8800     5.0300 h1         1 SH1       0.088700
     36 H2C1        -2.7110    -0.1210     5.4080 hc         1 SH1       0.066700
     37 H2C2        -2.1970    -1.5730     4.5570 hc         1 SH1       0.066700
     38 H4          -1.9550     0.3490     7.6650 ha         1 SH1       0.113000
     39 H5          -0.4210    -3.0320     5.5390 ha         1 SH1       0.113000
     40 H6          -0.9300    -0.4900     9.7420 ha         1 SH1       0.113500
     41 H7           0.6080    -3.8720     7.6140 ha         1 SH1       0.113500
     42 H8           0.3610    -2.6030     9.7260 ha         1 SH1       0.113000
     43 H1          -0.0160     2.4930     2.6110 hn         1 SH1       0.518000
     44 H9           0.4920    -0.1510     1.3850 h1         1 SH1       0.088700
     45 H101         1.9850     0.5270     3.2120 h1         1 SH1       0.029700
     46 H102         2.8350     0.3190     1.6840 h1         1 SH1       0.029700
     47 H3           3.3110     2.3610     2.7940 ho         1 SH1       0.452000
     48 H2           1.9710    -0.1680    -0.4660 hn         1 SH1       0.333500
     49 H12          1.1120     1.6960    -2.5290 h1         1 SH1       0.084700
     50 H131         4.0640     1.4360    -1.7560 hc         1 SH1       0.050367
     51 H132         3.4480     2.2880    -3.1780 hc         1 SH1       0.050367
     52 H133         3.0690     2.8840    -1.5630 hc         1 SH1       0.050367
     53 HA           1.6490     0.9290    -4.5870 hn         1 SH1       0.323500
     54 H15          2.0980    -1.9760    -4.7500 h1         1 SH1       0.083700
     55 H161         1.0450     0.0220    -6.8020 hc         1 SH1       0.050700
     56 H162         1.2830    -1.6880    -7.0870 hc         1 SH1       0.050700
     57 H171        -0.3400    -2.2460    -5.2820 hc         1 SH1       0.051700
     58 H172        -0.5750    -0.5440    -4.9460 hc         1 SH1       0.051700
     59 H181        -1.3920    -0.2180    -7.3110 h1         1 SH1       0.028700
     60 H182        -1.1750    -1.9220    -7.5970 h1         1 SH1       0.028700
     61 H5N1        -5.0430    -0.4330    -4.5100 hn         1 SH1       0.461000
     62 H5N2        -4.9080    -1.9080    -5.2850 hn         1 SH1       0.461000
     63 H6N1        -3.8060     1.3490    -5.4250 hn         1 SH1       0.461000
     64 H6N2        -2.2650     1.0220    -5.9870 hn         1 SH1       0.461000
     65 H201         4.2830    -1.0210    -5.0480 h1         1 SH1       0.031200
     66 H202         3.6890    -1.7520    -6.5410 h1         1 SH1       0.031200
     67 HB           4.5700     0.3850    -6.8710 ho         1 SH1       0.446000
@<TRIPOS>BOND
     1     1     2 1   
     2     1     9 1   
     3     1    34 1   
     4     1    35 1   
     5     2     3 1   
     6     2    36 1   
     7     2    37 1   
     8     3     4 ar  
     9     3     5 ar  
    10     4     6 ar  
    11     4    38 1   
    12     5     7 ar  
    13     5    39 1   
    14     6     8 ar  
    15     6    40 1   
    16     7     8 ar  
    17     7    41 1   
    18     8    42 1   
    19     9    10 2   
    20     9    11 2   
    21     9    12 1   
    22    12    13 1   
    23    12    43 1   
    24    13    14 1   
    25    13    16 1   
    26    13    44 1   
    27    14    15 1   
    28    14    45 1   
    29    14    46 1   
    30    15    47 1   
    31    16    17 2   
    32    16    18 1   
    33    18    19 1   
    34    18    48 1   
    35    19    20 1   
    36    19    21 1   
    37    19    49 1   
    38    20    50 1   
    39    20    51 1   
    40    20    52 1   
    41    21    22 2   
    42    21    23 1   
    43    23    24 1   
    44    23    53 1   
    45    24    25 1   
    46    24    32 1   
    47    24    54 1   
    48    25    26 1   
    49    25    55 1   
    50    25    56 1   
    51    26    27 1   
    52    26    57 1   
    53    26    58 1   
    54    27    28 1   
    55    27    59 1   
    56    27    60 1   
    57    28    29 2   
    58    29    30 1   
    59    29    31 1   
    60    30    61 1   
    61    30    62 1   
    62    31    63 1   
    63    31    64 1   
    64    32    33 1   
    65    32    65 1   
    66    32    66 1   
    67    33    67 1   
@<TRIPOS>SUBSTRUCTURE
     1 SH1         1 TEMP              0 ****  ****    0 ROOT
