@<TRIPOS>MOLECULE
SH2
   52    53     1     0     0
SMALL
bcc


@<TRIPOS>ATOM
      1 CAZ         -5.1690    -0.5980     0.1730 ca         1 SH2      -0.107000
      2 CAY         -6.5030    -0.5760    -0.1450 ca         1 SH2       0.054100
      3 OAX         -7.2980    -1.6020    -0.5390 os         1 SH2      -0.318900
      4 CAW         -8.6240    -1.0920    -0.5400 c5         1 SH2       0.326200
      5 OAV         -8.5240     0.3240    -0.4900 os         1 SH2      -0.320900
      6 CAU         -7.2470     0.5930    -0.1140 ca         1 SH2       0.050100
      7 CAT         -6.6840     1.7940     0.2390 ca         1 SH2      -0.114000
      8 CAS         -5.3230     1.7820     0.5690 ca         1 SH2      -0.130000
      9 CAR         -4.5670     0.6170     0.5430 ca         1 SH2      -0.080300
     10 CAQ         -3.0980     0.6480     0.8600 c3         1 SH2      -0.053100
     11 CAP         -2.2630     0.8880    -0.4020 c3         1 SH2       0.105000
     12 NAO         -0.8420     0.9020    -0.1410 ns         1 SH2      -0.577900
     13 CAM         -0.0880    -0.2100    -0.1080 c          1 SH2       0.668100
     14 OAN         -0.5450    -1.3260    -0.3180 o          1 SH2      -0.599100
     15 CAL          1.3830     0.0200     0.1690 c3         1 SH2      -0.184400
     16 CAK          2.0540    -1.2080     0.7750 c3         1 SH2       0.115000
     17 NAJ          3.4690    -1.0070     0.9880 ns         1 SH2      -0.570900
     18 CAH          4.3790    -1.2060     0.0260 c          1 SH2       0.646100
     19 OAI          4.0830    -1.5790    -1.1020 o          1 SH2      -0.599100
     20 CAF          5.8400    -0.9590     0.4150 c3         1 SH2       0.063100
     21 OAG          6.0180    -1.0310     1.8130 oh         1 SH2      -0.600800
     22 CAB          6.4250     0.3400    -0.2030 c3         1 SH2      -0.066000
     23 CAA          6.3020     0.3190    -1.7280 c3         1 SH2      -0.086100
     24 CAC          5.7100     1.5790     0.3480 c3         1 SH2      -0.086100
     25 CAD          7.9160     0.3650     0.1720 c3         1 SH2       0.141400
     26 OAE          8.5250     1.5070    -0.3810 oh         1 SH2      -0.597800
     27 H1          -4.5970    -1.5180     0.1480 ha         1 SH2       0.159000
     28 H2          -9.1360    -1.3950    -1.4530 h2         1 SH2       0.064200
     29 H3          -7.2610     2.7090     0.2630 ha         1 SH2       0.151000
     30 H4          -4.8520     2.7120     0.8600 ha         1 SH2       0.133000
     31 H5          -2.8860     1.4370     1.5850 hc         1 SH2       0.055200
     32 H6          -2.7920    -0.2970     1.3150 hc         1 SH2       0.055200
     33 H7          -2.4820     0.1210    -1.1450 h1         1 SH2       0.059700
     34 H8          -2.5320     1.8480    -0.8420 h1         1 SH2       0.059700
     35 H9          -0.4180     1.7830     0.0970 hn         1 SH2       0.310500
     36 H10          1.8680     0.2690    -0.7800 hc         1 SH2       0.063700
     37 H11          1.5180     0.8840     0.8230 hc         1 SH2       0.063700
     38 H12          1.6060    -1.4460     1.7400 h1         1 SH2       0.069200
     39 H13          1.9090    -2.0720     0.1290 h1         1 SH2       0.069200
     40 H14          3.7810    -0.7540     1.9090 hn         1 SH2       0.319500
     41 H15          6.3960    -1.8020    -0.0140 h1         1 SH2       0.096700
     42 H16          6.0120    -0.1460     2.1920 ho         1 SH2       0.408000
     43 H17          5.2700     0.4140    -2.0600 hc         1 SH2       0.044700
     44 H18          6.8600     1.1520    -2.1540 hc         1 SH2       0.044700
     45 H19          6.7040    -0.6050    -2.1490 hc         1 SH2       0.044700
     46 H20          5.8220     1.6940     1.4300 hc         1 SH2       0.044700
     47 H21          6.1140     2.4850    -0.1010 hc         1 SH2       0.044700
     48 H22          4.6420     1.5530     0.1280 hc         1 SH2       0.044700
     49 H23          8.0330     0.3580     1.2620 h1         1 SH2       0.023200
     50 H24          8.3810    -0.5590    -0.2040 h1         1 SH2       0.023200
     51 H25          9.4420     1.5220    -0.0920 ho         1 SH2       0.407000
     52 H26         -9.1630    -1.4580     0.3410 h2         1 SH2       0.064200
@<TRIPOS>BOND
     1     1     2 ar  
     2     1     9 ar  
     3     1    27 1   
     4     2     3 1   
     5     2     6 ar  
     6     3     4 1   
     7     4     5 1   
     8     4    28 1   
     9     4    52 1   
    10     5     6 1   
    11     6     7 ar  
    12     7     8 ar  
    13     7    29 1   
    14     8     9 ar  
    15     8    30 1   
    16     9    10 1   
    17    10    11 1   
    18    10    31 1   
    19    10    32 1   
    20    11    12 1   
    21    11    33 1   
    22    11    34 1   
    23    12    13 1   
    24    12    35 1   
    25    13    14 2   
    26    13    15 1   
    27    15    16 1   
    28    15    36 1   
    29    15    37 1   
    30    16    17 1   
    31    16    38 1   
    32    16    39 1   
    33    17    18 1   
    34    17    40 1   
    35    18    19 2   
    36    18    20 1   
    37    20    21 1   
    38    20    22 1   
    39    20    41 1   
    40    21    42 1   
    41    22    23 1   
    42    22    24 1   
    43    22    25 1   
    44    23    43 1   
    45    23    44 1   
    46    23    45 1   
    47    24    46 1   
    48    24    47 1   
    49    24    48 1   
    50    25    26 1   
    51    25    49 1   
    52    25    50 1   
    53    26    51 1   
@<TRIPOS>SUBSTRUCTURE
     1 SH2         1 TEMP              0 ****  ****    0 ROOT
