@<TRIPOS>MOLECULE
SH2
   52    53     1     0     0
SMALL
No Charge or Current Charge


@<TRIPOS>ATOM
      1 CAZ         -5.2250    -0.6400    -0.1920 ca         1 SH2      -0.089000
      2 CAY         -6.6180    -0.5270    -0.2800 ca         1 SH2       0.054100
      3 OAX         -7.4420    -1.3630    -0.9610 os         1 SH2      -0.342100
      4 CAW         -8.7770    -0.8130    -0.6710 c5         1 SH2       0.372600
      5 OAV         -8.6350     0.4250     0.1140 os         1 SH2      -0.344100
      6 CAU         -7.2970     0.4890     0.3310 ca         1 SH2       0.050100
      7 CAT         -6.6330     1.4710     1.0770 ca         1 SH2      -0.096000
      8 CAS         -5.2290     1.3840     1.1870 ca         1 SH2      -0.112000
      9 CAR         -4.5200     0.3300     0.5570 ca         1 SH2      -0.080300
     10 CAQ         -3.0050     0.2490     0.6740 c3         1 SH2      -0.053100
     11 CAP         -2.2980     0.9940    -0.4750 c3         1 SH2       0.105000
     12 NAO         -0.8370     0.9390    -0.3610 ns         1 SH2      -0.510900
     13 CAM         -0.0650    -0.1550    -0.6830 c          1 SH2       0.601100
     14 OAN         -0.5420    -1.1810    -1.1440 o          1 SH2      -0.599100
     15 CAL          1.4340     0.0240    -0.4600 c3         1 SH2      -0.184400
     16 CAK          1.8980    -0.7980     0.7560 c3         1 SH2       0.115000
     17 NAJ          3.3270    -0.6160     1.0160 ns         1 SH2      -0.503900
     18 CAH          4.3500    -1.2140     0.3100 c          1 SH2       0.579100
     19 OAI          4.1290    -2.0490    -0.5590 o          1 SH2      -0.599100
     20 CAF          5.7930    -0.8110     0.7690 c3         1 SH2       0.086300
     21 OAG          5.8200    -0.4500     2.1800 oh         1 SH2      -0.663000
     22 CAB          6.4480     0.3270    -0.1080 c3         1 SH2      -0.066000
     23 CAA          6.4310    -0.0910    -1.6110 c3         1 SH2      -0.086100
     24 CAC          5.6560     1.6620     0.0430 c3         1 SH2      -0.086100
     25 CAD          7.9320     0.5270     0.3530 c3         1 SH2       0.164600
     26 OAE          8.6140     1.5170    -0.4320 oh         1 SH2      -0.660000
     27 H1          -4.7070    -1.4550    -0.6910 ha         1 SH2       0.141000
     28 H2          -9.2970    -0.5950    -1.6110 h2         1 SH2       0.064200
     29 H3          -7.1860     2.2770     1.5540 ha         1 SH2       0.133000
     30 H4          -4.6900     2.1360     1.7600 ha         1 SH2       0.115000
     31 H5          -2.6760     0.6730     1.6310 hc         1 SH2       0.055200
     32 H6          -2.6850    -0.8000     0.6780 hc         1 SH2       0.055200
     33 H7          -2.6000     0.5580    -1.4370 h1         1 SH2       0.059700
     34 H8          -2.6100     2.0470    -0.4710 h1         1 SH2       0.059700
     35 H9          -0.3500     1.7520    -0.0020 hn         1 SH2       0.310500
     36 H10          1.9680    -0.3320    -1.3480 hc         1 SH2       0.063700
     37 H11          1.6700     1.0790    -0.2800 hc         1 SH2       0.063700
     38 H12          1.3380    -0.4850     1.6480 h1         1 SH2       0.069200
     39 H13          1.6950    -1.8640     0.5870 h1         1 SH2       0.069200
     40 H14          3.6210     0.0020     1.7660 hn         1 SH2       0.319500
     41 H15          6.3870    -1.7250     0.6200 h1         1 SH2       0.096700
     42 H16          6.7370    -0.5810     2.5090 ho         1 SH2       0.447000
     43 H17          5.4080    -0.1850    -1.9920 hc         1 SH2       0.044700
     44 H18          6.9320     0.6540    -2.2410 hc         1 SH2       0.044700
     45 H19          6.9410    -1.0510    -1.7580 hc         1 SH2       0.044700
     46 H20          5.6660     2.0160     1.0810 hc         1 SH2       0.044700
     47 H21          6.0910     2.4530    -0.5800 hc         1 SH2       0.044700
     48 H22          4.6110     1.5440    -0.2660 hc         1 SH2       0.044700
     49 H23          7.9510     0.8270     1.4080 h1         1 SH2       0.023200
     50 H24          8.4610    -0.4330     0.2770 h1         1 SH2       0.023200
     51 H25          9.5300     1.5810    -0.0800 ho         1 SH2       0.446000
     52 H26         -9.3470    -1.5450    -0.0860 h2         1 SH2       0.064200
@<TRIPOS>BOND
     1     1     2 ar  
     2     1     9 ar  
     3     1    27 1   
     4     2     3 1   
     5     2     6 ar  
     6     3     4 1   
     7     4     5 1   
     8     4    28 1   
     9     4    52 1   
    10     5     6 1   
    11     6     7 ar  
    12     7     8 ar  
    13     7    29 1   
    14     8     9 ar  
    15     8    30 1   
    16     9    10 1   
    17    10    11 1   
    18    10    31 1   
    19    10    32 1   
    20    11    12 1   
    21    11    33 1   
    22    11    34 1   
    23    12    13 1   
    24    12    35 1   
    25    13    14 2   
    26    13    15 1   
    27    15    16 1   
    28    15    36 1   
    29    15    37 1   
    30    16    17 1   
    31    16    38 1   
    32    16    39 1   
    33    17    18 1   
    34    17    40 1   
    35    18    19 2   
    36    18    20 1   
    37    20    21 1   
    38    20    22 1   
    39    20    41 1   
    40    21    42 1   
    41    22    23 1   
    42    22    24 1   
    43    22    25 1   
    44    23    43 1   
    45    23    44 1   
    46    23    45 1   
    47    24    46 1   
    48    24    47 1   
    49    24    48 1   
    50    25    26 1   
    51    25    49 1   
    52    25    50 1   
    53    26    51 1   
@<TRIPOS>SUBSTRUCTURE
     1 SH2         1 TEMP              0 ****  ****    0 ROOT
