@<TRIPOS>MOLECULE
SH4
   42    43     1     0     0
SMALL
No Charge or Current Charge


@<TRIPOS>ATOM
      1 O1          -0.1040    -1.5440     1.9630 o          1 SH4      -0.808500
      2 P1          -0.7980    -1.2310     0.6770 p5         1 SH4       1.399400
      3 O2          -0.7520    -2.3740    -0.2840 o          1 SH4      -0.808500
      4 O3          -2.3050    -0.7110     0.9600 os         1 SH4      -0.590400
      5 C1          -3.1700    -0.1040    -0.0180 c3         1 SH4       0.269600
      6 C2          -4.4880     0.2340     0.6800 ca         1 SH4      -0.090300
      7 C3          -4.9190     1.5740     0.7700 ca         1 SH4      -0.096000
      8 C4          -6.1330     1.8900     1.4070 ca         1 SH4      -0.124500
      9 C5          -6.9240     0.8700     1.9600 ca         1 SH4      -0.127000
     10 C6          -6.5020    -0.4670     1.8780 ca         1 SH4      -0.124500
     11 C7          -5.2890    -0.7840     1.2420 ca         1 SH4      -0.096000
     12 C8          -3.3810    -1.0380    -1.2320 c3         1 SH4      -0.086100
     13 C9          -0.0600     0.2800    -0.0710 c3         1 SH4      -0.401100
     14 C10          1.4550     0.2690    -0.2120 ca         1 SH4      -0.023300
     15 C11          2.0580    -0.3230    -1.3360 ca         1 SH4      -0.082000
     16 C12          3.4570    -0.3320    -1.4740 ca         1 SH4      -0.147500
     17 C13          4.2760     0.2570    -0.4860 ca         1 SH4      -0.066000
     18 N1           5.6980     0.2890    -0.5550 ns         1 SH4      -0.136000
     19 C14          6.6050    -0.1750    -1.5020 c          1 SH4       0.602100
     20 O4           6.3010    -0.7450    -2.5440 o          1 SH4      -0.598100
     21 C15          8.0650     0.0860    -1.1380 c3         1 SH4      -0.182100
     22 C16          3.6660     0.8490     0.6360 ca         1 SH4      -0.147500
     23 C17          2.2670     0.8570     0.7730 ca         1 SH4      -0.082000
     24 H1          -2.7310     0.8340    -0.3840 h1         1 SH4       0.050700
     25 H3          -4.3150     2.3730     0.3460 ha         1 SH4       0.121500
     26 H4          -6.4580     2.9250     1.4710 ha         1 SH4       0.098000
     27 H5          -7.8630     1.1150     2.4520 ha         1 SH4       0.095000
     28 H6          -7.1120    -1.2570     2.3080 ha         1 SH4       0.098000
     29 H7          -4.9680    -1.8220     1.1890 ha         1 SH4       0.121500
     30 H81         -4.1990    -0.6610    -1.8570 hc         1 SH4       0.030367
     31 H82         -2.4860    -1.0800    -1.8620 hc         1 SH4       0.030367
     32 H83         -3.6400    -2.0550    -0.9130 hc         1 SH4       0.030367
     33 H91         -0.5280     0.4060    -1.0520 hc         1 SH4       0.056200
     34 H92         -0.3860     1.1200     0.5520 hc         1 SH4       0.056200
     35 H11          1.4400    -0.7810    -2.1050 ha         1 SH4       0.120500
     36 H12          3.8810    -0.8010    -2.3560 ha         1 SH4       0.110500
     37 HN1          6.1320     0.7360     0.2420 hn         1 SH4       0.138000
     38 H151         8.2710    -0.3450    -0.1510 hc         1 SH4       0.053367
     39 H152         8.7650    -0.2860    -1.8960 hc         1 SH4       0.053367
     40 H153         8.2010     1.1580    -0.9540 hc         1 SH4       0.053367
     41 H16          4.2780     1.3080     1.4100 ha         1 SH4       0.110500
     42 H17          1.8150     1.3190     1.6480 ha         1 SH4       0.120500
@<TRIPOS>BOND
     1     1     2 1   
     2     2     3 1   
     3     2     4 1   
     4     2    13 1   
     5     4     5 1   
     6     5     6 1   
     7     5    12 1   
     8     5    24 1   
     9     6     7 ar  
    10     6    11 ar  
    11     7     8 ar  
    12     7    25 1   
    13     8     9 ar  
    14     8    26 1   
    15     9    10 ar  
    16     9    27 1   
    17    10    11 ar  
    18    10    28 1   
    19    11    29 1   
    20    12    30 1   
    21    12    31 1   
    22    12    32 1   
    23    13    14 1   
    24    13    33 1   
    25    13    34 1   
    26    14    15 ar  
    27    14    23 ar  
    28    15    16 ar  
    29    15    35 1   
    30    16    17 ar  
    31    16    36 1   
    32    17    18 1   
    33    17    22 ar  
    34    18    19 1   
    35    18    37 1   
    36    19    20 2   
    37    19    21 1   
    38    21    38 1   
    39    21    39 1   
    40    21    40 1   
    41    22    23 ar  
    42    22    41 1   
    43    23    42 1   
@<TRIPOS>SUBSTRUCTURE
     1 SH4         1 TEMP              0 ****  ****    0 ROOT
