@<TRIPOS>MOLECULE
SH4
   42    43     1     0     0
SMALL
abcg2


@<TRIPOS>ATOM
      1 O1          -0.2790    -3.0350     0.6540 o          1 SH4      -0.808500
      2 P1          -0.8770    -1.9780    -0.2310 p5         1 SH4       1.399400
      3 O2          -0.6390    -1.9890    -1.7160 o          1 SH4      -0.808500
      4 O3          -2.5060    -2.0710     0.0620 os         1 SH4      -0.590400
      5 C1          -3.4230    -1.2820    -0.6700 c3         1 SH4       0.269600
      6 C2          -3.8460    -0.0670     0.1240 ca         1 SH4      -0.090300
      7 C3          -4.1790     1.1120    -0.5370 ca         1 SH4      -0.096000
      8 C4          -4.6170     2.2250     0.1690 ca         1 SH4      -0.124500
      9 C5          -4.7230     2.1730     1.5530 ca         1 SH4      -0.127000
     10 C6          -4.3890     1.0020     2.2200 ca         1 SH4      -0.124500
     11 C7          -3.9540    -0.1100     1.5110 ca         1 SH4      -0.096000
     12 C8          -4.6290    -2.1450    -1.0170 c3         1 SH4      -0.086100
     13 C9          -0.4460    -0.3170     0.4270 c3         1 SH4      -0.401100
     14 C10          1.0230    -0.0740     0.2760 ca         1 SH4      -0.023300
     15 C11          1.5420     0.5520    -0.8520 ca         1 SH4      -0.082000
     16 C12          2.9040     0.7590    -1.0240 ca         1 SH4      -0.147500
     17 C13          3.8000     0.3200    -0.0490 ca         1 SH4      -0.066000
     18 N1           5.1910     0.4760    -0.1130 ns         1 SH4      -0.136000
     19 C14          5.9500     1.0780    -1.0610 c          1 SH4       0.602100
     20 O4           5.5000     1.5850    -2.0750 o          1 SH4      -0.598100
     21 C15          7.4270     1.0950    -0.7540 c3         1 SH4      -0.182100
     22 C16          3.2910    -0.3210     1.0820 ca         1 SH4      -0.147500
     23 C17          1.9300    -0.5180     1.2350 ca         1 SH4      -0.082000
     24 H1          -2.9680    -0.9400    -1.6070 h1         1 SH4       0.050700
     25 H3          -4.0900     1.1650    -1.6160 ha         1 SH4       0.121500
     26 H4          -4.8700     3.1340    -0.3610 ha         1 SH4       0.098000
     27 H5          -5.0600     3.0400     2.1070 ha         1 SH4       0.095000
     28 H6          -4.4640     0.9530     3.3000 ha         1 SH4       0.098000
     29 H7          -3.6890    -1.0130     2.0460 ha         1 SH4       0.121500
     30 H81         -5.3650    -1.5690    -1.5770 hc         1 SH4       0.030367
     31 H82         -4.3290    -2.9970    -1.6290 hc         1 SH4       0.030367
     32 H83         -5.1120    -2.5210    -0.1140 hc         1 SH4       0.030367
     33 H91         -1.0150     0.4490    -0.1050 hc         1 SH4       0.056200
     34 H92         -0.7440    -0.2620     1.4770 hc         1 SH4       0.056200
     35 H11          0.8680     0.9040    -1.6230 ha         1 SH4       0.120500
     36 H12          3.2530     1.2550    -1.9150 ha         1 SH4       0.110500
     37 HN1          5.6890     0.0950     0.6760 hn         1 SH4       0.138000
     38 H151         7.7140     0.4440     0.0700 hc         1 SH4       0.053367
     39 H152         7.9870     0.8030    -1.6410 hc         1 SH4       0.053367
     40 H153         7.7250     2.1130    -0.5000 hc         1 SH4       0.053367
     41 H16          3.9680    -0.6700     1.8530 ha         1 SH4       0.110500
     42 H17          1.5700    -1.0190     2.1260 ha         1 SH4       0.120500
@<TRIPOS>BOND
     1     1     2 1   
     2     2     3 1   
     3     2     4 1   
     4     2    13 1   
     5     4     5 1   
     6     5     6 1   
     7     5    12 1   
     8     5    24 1   
     9     6     7 ar  
    10     6    11 ar  
    11     7     8 ar  
    12     7    25 1   
    13     8     9 ar  
    14     8    26 1   
    15     9    10 ar  
    16     9    27 1   
    17    10    11 ar  
    18    10    28 1   
    19    11    29 1   
    20    12    30 1   
    21    12    31 1   
    22    12    32 1   
    23    13    14 1   
    24    13    33 1   
    25    13    34 1   
    26    14    15 ar  
    27    14    23 ar  
    28    15    16 ar  
    29    15    35 1   
    30    16    17 ar  
    31    16    36 1   
    32    17    18 1   
    33    17    22 ar  
    34    18    19 1   
    35    18    37 1   
    36    19    20 2   
    37    19    21 1   
    38    21    38 1   
    39    21    39 1   
    40    21    40 1   
    41    22    23 ar  
    42    22    41 1   
    43    23    42 1   
@<TRIPOS>SUBSTRUCTURE
     1 SH4         1 TEMP              0 ****  ****    0 ROOT
