@<TRIPOS>MOLECULE
SH6
   25    24     1     0     0
SMALL
bcc


@<TRIPOS>ATOM
      1 OAA         -5.8820    -1.4460     0.0560 o          1 SH6      -0.848300
      2 CAB         -5.9630    -0.2030     0.0090 c          1 SH6       0.927600
      3 OAC         -7.0180     0.4660    -0.0360 o          1 SH6      -0.848300
      4 CAD         -4.6540     0.6070     0.0100 c3         1 SH6      -0.204400
      5 CAE         -3.3660    -0.2010     0.0170 c3         1 SH6      -0.054400
      6 CAF         -2.1190     0.6750     0.0090 c3         1 SH6      -0.079400
      7 CAG         -0.8240    -0.1270     0.0050 c3         1 SH6      -0.075400
      8 CAH          0.4220     0.7510    -0.0060 c3         1 SH6      -0.078400
      9 CAI          1.7120    -0.0660    -0.0150 c3         1 SH6      -0.080400
     10 CAJ          2.9150     0.8520    -0.0260 c3         1 SH6       0.024000
     11 BRA          4.6090    -0.1620    -0.0370 br         1 SH6      -0.223400
     12 H2          -4.6650     1.2740    -0.8600 hc         1 SH6       0.014700
     13 H3          -4.6700     1.2780     0.8770 hc         1 SH6       0.014700
     14 H4          -3.3420    -0.8530     0.8960 hc         1 SH6       0.038200
     15 H5          -3.3420    -0.8670    -0.8510 hc         1 SH6       0.038200
     16 H6          -2.1400     1.3320    -0.8690 hc         1 SH6       0.023700
     17 H7          -2.1320     1.3390     0.8810 hc         1 SH6       0.023700
     18 H8          -0.7980    -0.7810     0.8830 hc         1 SH6       0.036700
     19 H9          -0.8090    -0.7890    -0.8680 hc         1 SH6       0.036700
     20 H10          0.3970     1.4060    -0.8840 hc         1 SH6       0.034700
     21 H11          0.4100     1.4100     0.8690 hc         1 SH6       0.034700
     22 H12          1.7420    -0.7130     0.8660 hc         1 SH6       0.054700
     23 H13          1.7280    -0.7160    -0.8930 hc         1 SH6       0.054700
     24 H14          2.9360     1.4830    -0.9130 h1         1 SH6       0.066700
     25 H15          2.9490     1.4860     0.8590 h1         1 SH6       0.066700
@<TRIPOS>BOND
     1     1     2 1   
     2     2     3 1   
     3     2     4 1   
     4     4     5 1   
     5     4    12 1   
     6     4    13 1   
     7     5     6 1   
     8     5    14 1   
     9     5    15 1   
    10     6     7 1   
    11     6    16 1   
    12     6    17 1   
    13     7     8 1   
    14     7    18 1   
    15     7    19 1   
    16     8     9 1   
    17     8    20 1   
    18     8    21 1   
    19     9    10 1   
    20     9    22 1   
    21     9    23 1   
    22    10    11 1   
    23    10    24 1   
    24    10    25 1   
@<TRIPOS>SUBSTRUCTURE
     1 SH6         1 TEMP              0 ****  ****    0 ROOT
