@<TRIPOS>MOLECULE
SH6
   25    24     1     0     0
SMALL
No Charge or Current Charge


@<TRIPOS>ATOM
      1 OAA         -6.3680    -0.8060     1.0410 o          1 SH6      -0.743000
      2 CAB         -5.9520    -0.2630     0.0290 c          1 SH6       0.717000
      3 OAC         -6.4240    -0.4530    -1.0820 o          1 SH6      -0.743000
      4 CAD         -4.7290     0.6640     0.1510 c3         1 SH6      -0.204400
      5 CAE         -3.4220    -0.1490    -0.0190 c3         1 SH6      -0.054400
      6 CAF         -2.1480     0.7180     0.0920 c3         1 SH6      -0.079400
      7 CAG         -0.8460    -0.0960    -0.0780 c3         1 SH6      -0.075400
      8 CAH          0.4270     0.7720     0.0330 c3         1 SH6      -0.078400
      9 CAI          1.7290    -0.0420    -0.1360 c3         1 SH6      -0.080400
     10 CAJ          2.9970     0.8260    -0.0250 c3         1 SH6       0.106600
     11 BrA          4.6490    -0.2670    -0.2510 br         1 SH6      -0.306000
     12 H2          -4.7280     1.4060    -0.6580 hc         1 SH6       0.014700
     13 H3          -4.6800     1.1050     1.1540 hc         1 SH6       0.014700
     14 H4          -3.3880    -0.9380     0.7430 hc         1 SH6       0.038200
     15 H5          -3.4330    -0.6490    -0.9950 hc         1 SH6       0.038200
     16 H6          -2.1810     1.5060    -0.6710 hc         1 SH6       0.023700
     17 H7          -2.1350     1.2170     1.0690 hc         1 SH6       0.023700
     18 H8          -0.8120    -0.8840     0.6850 hc         1 SH6       0.036700
     19 H9          -0.8580    -0.5950    -1.0550 hc         1 SH6       0.036700
     20 H10          0.3940     1.5600    -0.7290 hc         1 SH6       0.034700
     21 H11          0.4390     1.2710     1.0110 hc         1 SH6       0.034700
     22 H12          1.7680    -0.8290     0.6260 hc         1 SH6       0.054700
     23 H13          1.7220    -0.5400    -1.1140 hc         1 SH6       0.054700
     24 H14          3.0150     1.5970    -0.8060 h1         1 SH6       0.066700
     25 H15          3.0610     1.3020     0.9620 h1         1 SH6       0.066700
@<TRIPOS>BOND
     1     1     2 1   
     2     2     3 1   
     3     2     4 1   
     4     4     5 1   
     5     4    12 1   
     6     4    13 1   
     7     5     6 1   
     8     5    14 1   
     9     5    15 1   
    10     6     7 1   
    11     6    16 1   
    12     6    17 1   
    13     7     8 1   
    14     7    18 1   
    15     7    19 1   
    16     8     9 1   
    17     8    20 1   
    18     8    21 1   
    19     9    10 1   
    20     9    22 1   
    21     9    23 1   
    22    10    11 1   
    23    10    24 1   
    24    10    25 1   
@<TRIPOS>SUBSTRUCTURE
     1 SH6         1 TEMP              0 ****  ****    0 ROOT
