@<TRIPOS>MOLECULE
SH8
   22    23     1     0     0
SMALL
No Charge or Current Charge


@<TRIPOS>ATOM
      1 O5         -16.1070   -16.0130    53.3160 o          1 SH8      -0.697500
      2 C16        -16.2570   -14.8600    52.9350 c          1 SH8       0.727200
      3 O4         -16.7930   -14.6150    51.8670 o          1 SH8      -0.697500
      4 C15        -15.7650   -13.7620    53.8100 cc         1 SH8      -0.229400
      5 C23        -15.9190   -12.3350    53.4000 c          1 SH8       0.672300
      6 O6         -16.4370   -11.9570    52.3580 o          1 SH8      -0.468000
      7 C14        -15.1560   -14.0590    55.0240 cd         1 SH8      -0.141200
      8 C13        -14.6700   -12.9950    55.8920 ca         1 SH8      -0.117800
      9 C1         -14.8300   -11.6680    55.4770 ca         1 SH8       0.162100
     10 O1         -15.4330   -11.3910    54.2760 os         1 SH8      -0.378200
     11 C12        -14.0500   -13.2750    57.1240 ca         1 SH8      -0.066000
     12 C4         -13.5900   -12.2220    57.9400 ca         1 SH8      -0.125300
     13 C3         -13.7580   -10.8890    57.5160 ca         1 SH8      -0.097000
     14 C2         -14.3770   -10.6140    56.2840 ca         1 SH8      -0.140000
     15 C5         -12.9230   -12.5230    59.2740 c3         1 SH8      -0.032800
     16 H2         -15.0350   -15.0930    55.3400 ha         1 SH8       0.207000
     17 H3         -13.9270   -14.3060    57.4490 ha         1 SH8       0.111000
     18 H4         -13.4100   -10.0680    58.1390 ha         1 SH8       0.097000
     19 H5         -14.5060    -9.5860    55.9550 ha         1 SH8       0.121000
     20 H6         -12.2050   -11.7410    59.5480 hc         1 SH8       0.031033
     21 H7         -13.6680   -12.5890    60.0760 hc         1 SH8       0.031033
     22 H8         -12.3780   -13.4740    59.2430 hc         1 SH8       0.031033
@<TRIPOS>BOND
     1     1     2 1   
     2     2     3 1   
     3     2     4 1   
     4     4     5 1   
     5     4     7 2   
     6     5     6 2   
     7     5    10 1   
     8     7     8 1   
     9     7    16 1   
    10     8     9 ar  
    11     8    11 ar  
    12     9    10 1   
    13     9    14 ar  
    14    11    12 ar  
    15    11    17 1   
    16    12    13 ar  
    17    12    15 1   
    18    13    14 ar  
    19    13    18 1   
    20    14    19 1   
    21    15    20 1   
    22    15    21 1   
    23    15    22 1   
@<TRIPOS>SUBSTRUCTURE
     1 SH8         1 TEMP              0 ****  ****    0 ROOT
