@<TRIPOS>MOLECULE
SH8
   22    23     1     0     0
SMALL
bcc


@<TRIPOS>ATOM
      1 O5         -15.7250   -15.9740    53.0660 o          1 SH8      -0.802800
      2 C16        -16.2960   -14.8740    52.9620 c          1 SH8       0.937800
      3 O4         -17.3100   -14.5970    52.3030 o          1 SH8      -0.802800
      4 C15        -15.7020   -13.7450    53.8080 cc         1 SH8      -0.229400
      5 C23        -15.8100   -12.3480    53.3930 c          1 SH8       0.747800
      6 O6         -16.1990   -11.9270    52.3350 o          1 SH8      -0.543500
      7 C14        -15.0860   -14.0300    54.9750 cd         1 SH8      -0.091200
      8 C13        -14.6260   -13.0110    55.8690 ca         1 SH8      -0.117800
      9 C1         -14.8240   -11.6900    55.4810 ca         1 SH8       0.162100
     10 O1         -15.3840   -11.4040    54.2870 os         1 SH8      -0.378200
     11 C12        -14.0180   -13.2710    57.1030 ca         1 SH8      -0.084000
     12 C4         -13.6200   -12.2440    57.9380 ca         1 SH8      -0.125300
     13 C3         -13.8500   -10.9260    57.5190 ca         1 SH8      -0.115000
     14 C2         -14.4440   -10.6390    56.3050 ca         1 SH8      -0.158000
     15 C5         -12.9610   -12.5160    59.2580 c3         1 SH8      -0.032800
     16 H2         -14.9560   -15.0660    55.2650 ha         1 SH8       0.157000
     17 H3         -13.8630   -14.3030    57.3970 ha         1 SH8       0.129000
     18 H4         -13.5510   -10.1060    58.1610 ha         1 SH8       0.115000
     19 H5         -14.6110    -9.6150    55.9960 ha         1 SH8       0.139000
     20 H6         -11.9620   -12.0790    59.2980 hc         1 SH8       0.031033
     21 H7         -13.5320   -12.0860    60.0820 hc         1 SH8       0.031033
     22 H8         -12.8630   -13.5850    59.4420 hc         1 SH8       0.031033
@<TRIPOS>BOND
     1     1     2 1   
     2     2     3 1   
     3     2     4 1   
     4     4     5 1   
     5     4     7 2   
     6     5     6 2   
     7     5    10 1   
     8     7     8 1   
     9     7    16 1   
    10     8     9 ar  
    11     8    11 ar  
    12     9    10 1   
    13     9    14 ar  
    14    11    12 ar  
    15    11    17 1   
    16    12    13 ar  
    17    12    15 1   
    18    13    14 ar  
    19    13    18 1   
    20    14    19 1   
    21    15    20 1   
    22    15    21 1   
    23    15    22 1   
@<TRIPOS>SUBSTRUCTURE
     1 SH8         1 TEMP              0 ****  ****    0 ROOT
