@<TRIPOS>MOLECULE
SH9
   27    28     1     0     0
SMALL
No Charge or Current Charge


@<TRIPOS>ATOM
      1 C1          19.2910    17.5250    -6.6160 cc         1 SH9      -0.190000
      2 C2          19.6460    18.8450    -6.8470 cd         1 SH9      -0.108200
      3 C3          18.6190    19.8220    -6.5680 ca         1 SH9      -0.117800
      4 C4          18.7010    21.2190    -6.7140 ca         1 SH9       0.191100
      5 C5          20.1450    23.1850    -7.1910 c3         1 SH9       0.162600
      6 C7          17.5610    21.9910    -6.3850 ca         1 SH9      -0.212000
      7 C9          16.3410    19.9590    -5.7700 ca         1 SH9      -0.124000
      8 N           19.8680    15.2540    -6.1350 n2         1 SH9      -0.846100
      9 C           20.1060    16.3240    -6.7710 ce         1 SH9       0.694500
     10 O           19.8790    21.7690    -7.1890 os         1 SH9      -0.352100
     11 C10         17.4760    19.2070    -6.1080 ca         1 SH9      -0.114000
     12 C6          20.4340    23.6390    -5.7450 c3         1 SH9      -0.126100
     13 C8          16.3880    21.3600    -5.9130 ca         1 SH9      -0.054000
     14 N1          21.2250    16.3660    -7.5130 nv         1 SH9      -1.037200
     15 S           17.6110    17.4300    -5.9960 ss         1 SH9       0.063400
     16 H2          20.6350    19.1310    -7.1970 ha         1 SH9       0.216000
     17 H4          21.0340    23.3910    -7.8010 h1         1 SH9       0.055200
     18 H3          19.3130    23.7550    -7.6230 h1         1 SH9       0.055200
     19 H8          17.5610    23.0710    -6.4900 ha         1 SH9       0.120000
     20 H10         15.4400    19.4710    -5.4070 ha         1 SH9       0.127000
     21 H           19.0350    15.4160    -5.5570 hn         1 SH9       0.387400
     22 H7          20.7010    24.7020    -5.7310 hc         1 SH9       0.049367
     23 H5          19.5600    23.5000    -5.0990 hc         1 SH9       0.049367
     24 H6          21.2720    23.0710    -5.3240 hc         1 SH9       0.049367
     25 H9          15.5150    21.9580    -5.6600 ha         1 SH9       0.114000
     26 H12         21.6040    15.4490    -7.7120 hn         1 SH9       0.474000
     27 H11         21.2100    17.0140    -8.2900 hn         1 SH9       0.474000
@<TRIPOS>BOND
     1     1     2 2   
     2     1     9 1   
     3     1    15 1   
     4     2     3 1   
     5     2    16 1   
     6     3     4 ar  
     7     3    11 ar  
     8     4     6 ar  
     9     4    10 1   
    10     5    10 1   
    11     5    12 1   
    12     5    17 1   
    13     5    18 1   
    14     6    13 ar  
    15     6    19 1   
    16     7    11 ar  
    17     7    13 ar  
    18     7    20 1   
    19     8     9 2   
    20     8    21 1   
    21     9    14 1   
    22    11    15 1   
    23    12    22 1   
    24    12    23 1   
    25    12    24 1   
    26    13    25 1   
    27    14    26 1   
    28    14    27 1   
@<TRIPOS>SUBSTRUCTURE
     1 SH9         1 TEMP              0 ****  ****    0 ROOT
