@<TRIPOS>MOLECULE
SH9
   27    28     1     0     0
SMALL
abcg2


@<TRIPOS>ATOM
      1 C1          19.2750    17.5540    -6.6080 cc         1 SH9      -0.190000
      2 C2          19.6830    18.8370    -6.8200 cd         1 SH9      -0.108200
      3 C3          18.6640    19.8020    -6.5530 ca         1 SH9      -0.117800
      4 C4          18.7350    21.2090    -6.6560 ca         1 SH9       0.191100
      5 C5          20.1270    23.1280    -7.1340 c3         1 SH9       0.162600
      6 C7          17.6130    21.9620    -6.3380 ca         1 SH9      -0.212000
      7 C9          16.3250    19.9580    -5.8180 ca         1 SH9      -0.124000
      8 N           19.8070    15.2080    -6.1410 n2         1 SH9      -0.846100
      9 C           20.0620    16.3140    -6.7500 ce         1 SH9       0.694500
     10 O           19.9230    21.7030    -7.0810 os         1 SH9      -0.352100
     11 C10         17.4570    19.2050    -6.1330 ca         1 SH9      -0.114000
     12 C6          20.4280    23.7150    -5.7690 c3         1 SH9      -0.126100
     13 C8          16.4270    21.3320    -5.9280 ca         1 SH9      -0.054000
     14 N1          21.1560    16.4160    -7.5640 nv         1 SH9      -1.037200
     15 S           17.6070    17.4710    -6.0810 ss         1 SH9       0.063400
     16 H2          20.6830    19.0980    -7.1320 ha         1 SH9       0.216000
     17 H4          20.9790    23.2480    -7.8010 h1         1 SH9       0.055200
     18 H3          19.2630    23.6060    -7.6020 h1         1 SH9       0.055200
     19 H8          17.6350    23.0400    -6.3990 ha         1 SH9       0.120000
     20 H10         15.4070    19.4850    -5.4970 ha         1 SH9       0.127000
     21 H           19.0280    15.3150    -5.4980 hn         1 SH9       0.387400
     22 H7          20.6230    24.7840    -5.8700 hc         1 SH9       0.049367
     23 H5          19.5930    23.5850    -5.0790 hc         1 SH9       0.049367
     24 H6          21.3120    23.2430    -5.3380 hc         1 SH9       0.049367
     25 H9          15.5710    21.9500    -5.6870 ha         1 SH9       0.114000
     26 H12         21.6410    15.5560    -7.7710 hn         1 SH9       0.474000
     27 H11         21.1450    17.0980    -8.3050 hn         1 SH9       0.474000
@<TRIPOS>BOND
     1     1     2 2   
     2     1     9 1   
     3     1    15 1   
     4     2     3 1   
     5     2    16 1   
     6     3     4 ar  
     7     3    11 ar  
     8     4     6 ar  
     9     4    10 1   
    10     5    10 1   
    11     5    12 1   
    12     5    17 1   
    13     5    18 1   
    14     6    13 ar  
    15     6    19 1   
    16     7    11 ar  
    17     7    13 ar  
    18     7    20 1   
    19     8     9 2   
    20     8    21 1   
    21     9    14 1   
    22    11    15 1   
    23    12    22 1   
    24    12    23 1   
    25    12    24 1   
    26    13    25 1   
    27    14    26 1   
    28    14    27 1   
@<TRIPOS>SUBSTRUCTURE
     1 SH9         1 TEMP              0 ****  ****    0 ROOT
