@<TRIPOS>MOLECULE
SHA
   18    18     1     0     0
SMALL
abcg2


@<TRIPOS>ATOM
      1 C1           0.2080    -0.0650    -0.2010 ca         1 SHA      -0.280600
      2 C2           1.5280    -0.0420    -0.6660 ca         1 SHA      -0.037000
      3 C3           1.8160     0.0120    -2.0140 ca         1 SHA      -0.169000
      4 C4           0.7680     0.0430    -2.9320 ca         1 SHA      -0.038000
      5 C5          -0.5430     0.0020    -2.5050 ca         1 SHA      -0.172000
      6 C6          -0.8420    -0.0660    -1.1410 ca         1 SHA       0.224100
      7 O6          -2.1260    -0.1260    -0.7870 oh         1 SHA      -0.546100
      8 C7          -0.1410    -0.1020     1.2370 c          1 SHA       0.626700
      9 O7          -1.2950    -0.3220     1.6130 o          1 SHA      -0.612100
     10 N8           0.8610     0.0930     2.1110 ns         1 SHA      -0.358400
     11 O9           0.5550     0.2260     3.4320 oh         1 SHA      -0.426100
     12 H2           2.3560    -0.0870     0.0300 ha         1 SHA       0.104000
     13 H3           2.8440     0.0250    -2.3490 ha         1 SHA       0.120000
     14 H4           0.9790     0.0880    -3.9920 ha         1 SHA       0.118000
     15 H5          -1.3570     0.0130    -3.2180 ha         1 SHA       0.135000
     16 HO6         -2.1510    -0.2310     0.1940 ho         1 SHA       0.521000
     17 HN8          1.7250     0.5420     1.8480 hn         1 SHA       0.338500
     18 HO9          0.8040    -0.6110     3.8460 ho         1 SHA       0.452000
@<TRIPOS>BOND
     1     1     2 ar  
     2     1     6 ar  
     3     1     8 1   
     4     2     3 ar  
     5     2    12 1   
     6     3     4 ar  
     7     3    13 1   
     8     4     5 ar  
     9     4    14 1   
    10     5     6 ar  
    11     5    15 1   
    12     6     7 1   
    13     7    16 1   
    14     8     9 2   
    15     8    10 1   
    16    10    11 1   
    17    10    17 1   
    18    11    18 1   
@<TRIPOS>SUBSTRUCTURE
     1 SHA         1 TEMP              0 ****  ****    0 ROOT
