@<TRIPOS>MOLECULE
SHA
   18    18     1     0     0
SMALL
No Charge or Current Charge


@<TRIPOS>ATOM
      1 C1           0.1420    -0.0490    -0.2170 ca         1 SHA      -0.280600
      2 C2           1.4920     0.0120    -0.6450 ca         1 SHA      -0.037000
      3 C3           1.8080     0.0530    -2.0140 ca         1 SHA      -0.169000
      4 C4           0.7910     0.0320    -2.9790 ca         1 SHA      -0.038000
      5 C5          -0.5480    -0.0310    -2.5690 ca         1 SHA      -0.172000
      6 C6          -0.8720    -0.0730    -1.2050 ca         1 SHA       0.224100
      7 O6          -2.1840    -0.1350    -0.8540 oh         1 SHA      -0.546100
      8 C7          -0.2180    -0.0920     1.2540 c          1 SHA       0.626700
      9 O7          -1.3820    -0.1980     1.6240 o          1 SHA      -0.612100
     10 N8           0.8310    -0.0170     2.1630 ns         1 SHA      -0.358400
     11 O9           0.5830     0.2030     3.5750 oh         1 SHA      -0.426100
     12 H2           2.3150     0.0250     0.0660 ha         1 SHA       0.104000
     13 H3           2.8490     0.0990    -2.3280 ha         1 SHA       0.120000
     14 H4           1.0400     0.0640    -4.0380 ha         1 SHA       0.118000
     15 H5          -1.3400    -0.0490    -3.3120 ha         1 SHA       0.135000
     16 HO6         -2.1910    -0.1740     0.1390 ho         1 SHA       0.521000
     17 HN8          1.7600     0.2270     1.8290 hn         1 SHA       0.338500
     18 HO9          1.1120    -0.5040     4.0160 ho         1 SHA       0.452000
@<TRIPOS>BOND
     1     1     2 ar  
     2     1     6 ar  
     3     1     8 1   
     4     2     3 ar  
     5     2    12 1   
     6     3     4 ar  
     7     3    13 1   
     8     4     5 ar  
     9     4    14 1   
    10     5     6 ar  
    11     5    15 1   
    12     6     7 1   
    13     7    16 1   
    14     8     9 2   
    15     8    10 1   
    16    10    11 1   
    17    10    17 1   
    18    11    18 1   
@<TRIPOS>SUBSTRUCTURE
     1 SHA         1 TEMP              0 ****  ****    0 ROOT
