@<TRIPOS>MOLECULE
SHB
   26    26     1     0     0
SMALL
No Charge or Current Charge


@<TRIPOS>ATOM
      1 C1          15.8500   -35.8050    57.3240 c6         1 SHB       0.366300
      2 C2          16.1380   -35.3570    58.7940 c6         1 SHB       0.106300
      3 C3          14.8950   -35.6710    59.6810 c6         1 SHB       0.100300
      4 O4          13.6730   -33.6150    59.2460 oh         1 SHB      -0.698000
      5 C5          13.4740   -35.4540    57.5750 c6         1 SHB       0.129300
      6 C6          12.1790   -34.9130    56.9040 c          1 SHB       0.615100
      7 O6A         12.1490   -34.4960    55.7490 o          1 SHB      -0.494000
      8 O6          11.0440   -35.1380    57.6490 os         1 SHB      -0.398100
      9 CH3          9.7770   -34.7370    57.0980 c3         1 SHB       0.147900
     10 O5          14.6890   -35.1380    56.8260 os         1 SHB      -0.450000
     11 C4          13.6010   -35.0420    59.0790 c6         1 SHB       0.112300
     12 O3          15.1100   -35.1830    61.0180 oh         1 SHB      -0.700000
     13 O2          17.3190   -35.9960    59.3370 oh         1 SHB      -0.684000
     14 O1          16.9020   -35.4120    56.4640 oh         1 SHB      -0.677000
     15 H1          15.7070   -36.8970    57.2770 h2         1 SHB       0.056700
     16 H2          16.2770   -34.2650    58.7720 h1         1 SHB       0.107700
     17 H3          14.7600   -36.7630    59.7060 h1         1 SHB       0.033700
     18 HO4         14.1110   -33.5050    60.1260 ho         1 SHB       0.520000
     19 H5          13.3440   -36.5450    57.5500 h1         1 SHB       0.062700
     20 HH3          9.5720   -35.2670    56.1590 h1         1 SHB       0.050367
     21 HH3A         8.9660   -34.9660    57.8010 h1         1 SHB       0.050367
     22 HH3B         9.7600   -33.6570    56.9000 h1         1 SHB       0.050367
     23 H4          12.7370   -35.4420    59.6310 h1         1 SHB       0.056700
     24 HO3         16.0290   -35.4660    61.2490 ho         1 SHB       0.508000
     25 HO2         18.0070   -35.9370    58.6310 ho         1 SHB       0.500000
     26 HO1         16.4280   -35.0270    55.6930 ho         1 SHB       0.525000
@<TRIPOS>BOND
     1     1     2 1   
     2     1    10 1   
     3     1    14 1   
     4     1    15 1   
     5     2     3 1   
     6     2    13 1   
     7     2    16 1   
     8     3    11 1   
     9     3    12 1   
    10     3    17 1   
    11     4    11 1   
    12     4    18 1   
    13     5     6 1   
    14     5    10 1   
    15     5    11 1   
    16     5    19 1   
    17     6     7 2   
    18     6     8 1   
    19     8     9 1   
    20     9    20 1   
    21     9    21 1   
    22     9    22 1   
    23    11    23 1   
    24    12    24 1   
    25    13    25 1   
    26    14    26 1   
@<TRIPOS>SUBSTRUCTURE
     1 SHB         1 TEMP              0 ****  ****    0 ROOT
