@<TRIPOS>MOLECULE
SHB
   26    26     1     0     0
SMALL
abcg2


@<TRIPOS>ATOM
      1 C1          15.6290   -34.8140    57.3180 c6         1 SHB       0.366300
      2 C2          15.9840   -34.9220    58.8080 c6         1 SHB       0.106300
      3 C3          15.2000   -36.0730    59.4320 c6         1 SHB       0.100300
      4 O4          13.1360   -34.8320    59.7910 oh         1 SHB      -0.698000
      5 C5          13.5020   -35.7460    57.6430 c6         1 SHB       0.129300
      6 C6          12.0240   -35.5620    57.3490 c          1 SHB       0.615100
      7 O6A         11.2080   -36.3870    57.6720 o          1 SHB      -0.494000
      8 O6          11.7480   -34.4430    56.7150 os         1 SHB      -0.398100
      9 CH3         10.3750   -34.1880    56.4070 c3         1 SHB       0.147900
     10 O5          14.2350   -34.6560    57.1630 os         1 SHB      -0.450000
     11 C4          13.7030   -35.9390    59.1420 c6         1 SHB       0.112300
     12 O3          15.4430   -36.0770    60.8180 oh         1 SHB      -0.700000
     13 O2          17.3680   -35.0480    58.9960 oh         1 SHB      -0.684000
     14 O1          16.2560   -33.7690    56.6810 oh         1 SHB      -0.677000
     15 H1          15.9540   -35.7330    56.8000 h2         1 SHB       0.056700
     16 H2          15.6930   -33.9850    59.2970 h1         1 SHB       0.107700
     17 H3          15.5420   -37.0100    58.9650 h1         1 SHB       0.033700
     18 HO4         13.3830   -34.8750    60.7220 ho         1 SHB       0.520000
     19 H5          13.8100   -36.6780    57.1410 h1         1 SHB       0.062700
     20 HH3          9.7700   -34.1390    57.3110 h1         1 SHB       0.050367
     21 HH3A        10.3580   -33.2250    55.9050 h1         1 SHB       0.050367
     22 HH3B         9.9700   -34.9500    55.7430 h1         1 SHB       0.050367
     23 H4          13.2080   -36.8760    59.4350 h1         1 SHB       0.056700
     24 HO3         15.1680   -36.9280    61.1760 ho         1 SHB       0.508000
     25 HO2         17.6650   -35.8770    58.6040 ho         1 SHB       0.500000
     26 HO1         16.1640   -32.9630    57.2040 ho         1 SHB       0.525000
@<TRIPOS>BOND
     1     1     2 1   
     2     1    10 1   
     3     1    14 1   
     4     1    15 1   
     5     2     3 1   
     6     2    13 1   
     7     2    16 1   
     8     3    11 1   
     9     3    12 1   
    10     3    17 1   
    11     4    11 1   
    12     4    18 1   
    13     5     6 1   
    14     5    10 1   
    15     5    11 1   
    16     5    19 1   
    17     6     7 2   
    18     6     8 1   
    19     8     9 1   
    20     9    20 1   
    21     9    21 1   
    22     9    22 1   
    23    11    23 1   
    24    12    24 1   
    25    13    25 1   
    26    14    26 1   
@<TRIPOS>SUBSTRUCTURE
     1 SHB         1 TEMP              0 ****  ****    0 ROOT
