@<TRIPOS>MOLECULE
SHC
   31    30     1     0     0
SMALL
No Charge or Current Charge


@<TRIPOS>ATOM
      1 N           32.6920    58.3330     9.4570 n8         1 SHC      -0.869800
      2 CA          33.8850    58.6790     8.5930 c3         1 SHC       0.025500
      3 CB          34.3310    60.1380     8.8560 c3         1 SHC       0.049700
      4 SG          35.5150    60.7260     7.5640 ss         1 SHC      -0.291200
      5 C1          35.8060    62.4480     8.1640 c3         1 SHC      -0.017300
      6 C2          36.7840    63.2110     7.2460 c3         1 SHC      -0.051400
      7 C3          38.2270    62.6490     7.2680 c3         1 SHC      -0.078400
      8 C4          39.2490    63.4770     6.4480 c3         1 SHC      -0.070400
      9 C5          38.9590    63.5960     4.9310 c3         1 SHC      -0.070400
     10 C6          38.9180    62.2480     4.1820 c3         1 SHC      -0.093100
     11 C           35.1260    57.6850     8.6470 c          1 SHC       0.925600
     12 OXT         35.2720    56.8840     7.7270 o          1 SHC      -0.821800
     13 O           35.8380    57.6630     9.6480 o          1 SHC      -0.821800
     14 H           32.3310    57.4120     9.1840 hn         1 SHC       0.314800
     15 H2          31.9240    58.9820     9.2550 hn         1 SHC       0.314800
     16 HA          33.5120    58.6470     7.5600 h1         1 SHC       0.013700
     17 HB2         33.4560    60.8000     8.8390 h1         1 SHC       0.039200
     18 HB3         34.8040    60.2180     9.8430 h1         1 SHC       0.039200
     19 H11         34.8430    62.9750     8.1850 h1         1 SHC       0.041200
     20 H12         36.2020    62.4130     9.1870 h1         1 SHC       0.041200
     21 H21         36.3920    63.1970     6.2230 hc         1 SHC       0.031200
     22 H22         36.8090    64.2610     7.5630 hc         1 SHC       0.031200
     23 H31         38.5730    62.6130     8.3090 hc         1 SHC       0.053700
     24 H32         38.2290    61.6130     6.9100 hc         1 SHC       0.053700
     25 H41         39.3060    64.4870     6.8730 hc         1 SHC       0.026200
     26 H42         40.2440    63.0340     6.5810 hc         1 SHC       0.026200
     27 H51         38.0140    64.1280     4.7720 hc         1 SHC       0.026200
     28 H52         39.7400    64.2190     4.4790 hc         1 SHC       0.026200
     29 H61         38.8000    62.4160     3.1050 hc         1 SHC       0.035367
     30 H62         39.8460    61.6860     4.3410 hc         1 SHC       0.035367
     31 H63         38.0760    61.6340     4.5210 hc         1 SHC       0.035367
@<TRIPOS>BOND
     1     1     2 1   
     2     1    14 1   
     3     1    15 1   
     4     2     3 1   
     5     2    11 1   
     6     2    16 1   
     7     3     4 1   
     8     3    17 1   
     9     3    18 1   
    10     4     5 1   
    11     5     6 1   
    12     5    19 1   
    13     5    20 1   
    14     6     7 1   
    15     6    21 1   
    16     6    22 1   
    17     7     8 1   
    18     7    23 1   
    19     7    24 1   
    20     8     9 1   
    21     8    25 1   
    22     8    26 1   
    23     9    10 1   
    24     9    27 1   
    25     9    28 1   
    26    10    29 1   
    27    10    30 1   
    28    10    31 1   
    29    11    12 1   
    30    11    13 1   
@<TRIPOS>SUBSTRUCTURE
     1 SHC         1 TEMP              0 ****  ****    0 ROOT
