@<TRIPOS>MOLECULE
SHC
   31    30     1     0     0
SMALL
bcc


@<TRIPOS>ATOM
      1 N           32.8360    58.4990     9.5390 n8         1 SHC      -0.869800
      2 CA          33.8630    58.7420     8.5340 c3         1 SHC       0.025500
      3 CB          34.4910    60.0970     8.8640 c3         1 SHC       0.049700
      4 SG          35.7140    60.6290     7.6290 ss         1 SHC      -0.291200
      5 C1          35.8300    62.3820     8.1010 c3         1 SHC      -0.017300
      6 C2          36.7700    63.1350     7.1710 c3         1 SHC      -0.051400
      7 C3          38.2250    62.6900     7.2660 c3         1 SHC      -0.078400
      8 C4          39.1810    63.5500     6.4440 c3         1 SHC      -0.070400
      9 C5          38.8990    63.5810     4.9430 c3         1 SHC      -0.070400
     10 C6          38.9100    62.2060     4.2880 c3         1 SHC      -0.093100
     11 C           34.9490    57.6410     8.5290 c          1 SHC       0.925600
     12 OXT         35.6080    57.5510     7.4730 o          1 SHC      -0.821800
     13 O           35.0950    56.9660     9.5650 o          1 SHC      -0.821800
     14 H           32.5210    57.5400     9.4780 hn         1 SHC       0.314800
     15 H2          32.0280    59.0730     9.3320 hn         1 SHC       0.314800
     16 HA          33.4520    58.8050     7.5160 h1         1 SHC       0.013700
     17 HB2         33.7060    60.8580     8.8990 h1         1 SHC       0.039200
     18 HB3         34.9540    60.0550     9.8520 h1         1 SHC       0.039200
     19 H11         34.8310    62.8210     8.0610 h1         1 SHC       0.041200
     20 H12         36.1810    62.4580     9.1330 h1         1 SHC       0.041200
     21 H21         36.4070    63.0430     6.1430 hc         1 SHC       0.031200
     22 H22         36.7060    64.1980     7.4210 hc         1 SHC       0.031200
     23 H31         38.5360    62.7250     8.3160 hc         1 SHC       0.053700
     24 H32         38.3180    61.6420     6.9660 hc         1 SHC       0.053700
     25 H41         39.1600    64.5750     6.8300 hc         1 SHC       0.026200
     26 H42         40.2020    63.1880     6.6030 hc         1 SHC       0.026200
     27 H51         37.9380    64.0660     4.7520 hc         1 SHC       0.026200
     28 H52         39.6500    64.2150     4.4640 hc         1 SHC       0.026200
     29 H61         38.7900    62.2830     3.2070 hc         1 SHC       0.035367
     30 H62         39.8500    61.6850     4.4810 hc         1 SHC       0.035367
     31 H63         38.1020    61.5740     4.6600 hc         1 SHC       0.035367
@<TRIPOS>BOND
     1     1     2 1   
     2     1    14 1   
     3     1    15 1   
     4     2     3 1   
     5     2    11 1   
     6     2    16 1   
     7     3     4 1   
     8     3    17 1   
     9     3    18 1   
    10     4     5 1   
    11     5     6 1   
    12     5    19 1   
    13     5    20 1   
    14     6     7 1   
    15     6    21 1   
    16     6    22 1   
    17     7     8 1   
    18     7    23 1   
    19     7    24 1   
    20     8     9 1   
    21     8    25 1   
    22     8    26 1   
    23     9    10 1   
    24     9    27 1   
    25     9    28 1   
    26    10    29 1   
    27    10    30 1   
    28    10    31 1   
    29    11    12 1   
    30    11    13 1   
@<TRIPOS>SUBSTRUCTURE
     1 SHC         1 TEMP              0 ****  ****    0 ROOT
