@<TRIPOS>MOLECULE
SHD
   24    24     1     0     0
SMALL
No Charge or Current Charge


@<TRIPOS>ATOM
      1 C1          -0.9610     1.4000     0.1620 c6         1 SHD       0.361300
      2 C2          -1.8530     0.3250    -0.5640 c6         1 SHD       0.111300
      3 C3          -1.3280    -1.1010    -0.1960 c6         1 SHD       0.150300
      4 C4           0.1890    -1.2250    -0.5510 c6         1 SHD       0.151300
      5 C5           1.0070    -0.0590     0.1040 c6         1 SHD       0.176300
      6 C6           2.4990    -0.0520    -0.3700 c3         1 SHD       0.167600
      7 O1          -1.8370     0.4940    -2.0050 oh         1 SHD      -0.711000
      8 O2          -1.5220    -1.3640     1.2090 oh         1 SHD      -0.689000
      9 O3           0.6690    -2.5140    -0.1190 oh         1 SHD      -0.703000
     10 O4           0.4180     1.2390    -0.2170 os         1 SHD      -0.466000
     11 O5           3.2780     1.0240     0.1960 oh         1 SHD      -0.712000
     12 H11         -1.3010     2.4050    -0.1350 h2         1 SHD       0.052700
     13 O6          -1.0310     1.2780     1.5840 oh         1 SHD      -0.730000
     14 H2          -2.8850     0.4230    -0.1960 h1         1 SHD       0.047700
     15 H4           0.2960    -1.1410    -1.6430 h1         1 SHD       0.054700
     16 H5           1.0140    -0.1920     1.1950 h1         1 SHD       0.085700
     17 H16          2.9500    -1.0170    -0.1020 h1         1 SHD       0.032700
     18 H26          2.5070     0.0150    -1.4670 h1         1 SHD       0.032700
     19 HO3         -1.4110    -0.4720     1.6410 ho         1 SHD       0.505000
     20 HO4          0.0840    -2.7520     0.6410 ho         1 SHD       0.505000
     21 HO6          4.1710     0.9810    -0.2200 ho         1 SHD       0.500000
     22 H111        -1.8880    -1.8410    -0.7880 h1         1 SHD       0.042700
     23 H12         -2.2560     1.3640    -2.2060 ho         1 SHD       0.510000
     24 H121        -0.4990     2.0340     1.9270 ho         1 SHD       0.522000
@<TRIPOS>BOND
     1     1     2 1   
     2     1    10 1   
     3     1    12 1   
     4     1    13 1   
     5     2     3 1   
     6     2     7 1   
     7     2    14 1   
     8     3     4 1   
     9     3     8 1   
    10     3    22 1   
    11     4     5 1   
    12     4     9 1   
    13     4    15 1   
    14     5     6 1   
    15     5    10 1   
    16     5    16 1   
    17     6    11 1   
    18     6    17 1   
    19     6    18 1   
    20     7    23 1   
    21     8    19 1   
    22     9    20 1   
    23    11    21 1   
    24    13    24 1   
@<TRIPOS>SUBSTRUCTURE
     1 SHD         1 TEMP              0 ****  ****    0 ROOT
