@<TRIPOS>MOLECULE
SHD
   24    24     1     0     0
SMALL
bcc


@<TRIPOS>ATOM
      1 C1          -0.8050     1.4830     0.0670 c6         1 SHD       0.314900
      2 C2          -1.7800     0.3880    -0.3780 c6         1 SHD       0.088100
      3 C3          -1.2840    -1.0080     0.0160 c6         1 SHD       0.127100
      4 C4           0.1680    -1.1850    -0.4310 c6         1 SHD       0.128100
      5 C5           1.0330    -0.0500     0.1140 c6         1 SHD       0.153100
      6 C6           2.4570    -0.1320    -0.3960 c3         1 SHD       0.144400
      7 O1          -1.9060     0.3830    -1.7800 oh         1 SHD      -0.588800
      8 O2          -1.3390    -1.2220     1.4020 oh         1 SHD      -0.566800
      9 O3           0.7070    -2.4060     0.0150 oh         1 SHD      -0.580800
     10 O4           0.5070     1.1930    -0.3250 os         1 SHD      -0.419600
     11 O5           3.2050     0.9160     0.1750 oh         1 SHD      -0.589800
     12 H11         -1.0480     2.4110    -0.4700 h2         1 SHD       0.052700
     13 O6          -0.9350     1.6650     1.4400 oh         1 SHD      -0.607800
     14 H2          -2.7530     0.5780     0.1000 h1         1 SHD       0.047700
     15 H4           0.1880    -1.1250    -1.5280 h1         1 SHD       0.054700
     16 H5           1.0480    -0.0970     1.2110 h1         1 SHD       0.085700
     17 H16          2.8650    -1.1110    -0.1260 h1         1 SHD       0.032700
     18 H26          2.4510    -0.0750    -1.4940 h1         1 SHD       0.032700
     19 HO3         -2.2200    -0.9980     1.7150 ho         1 SHD       0.406000
     20 HO4          0.2780    -3.1210    -0.4660 ho         1 SHD       0.406000
     21 HO6          4.1220     0.8020    -0.0880 ho         1 SHD       0.401000
     22 H111        -1.9090    -1.7420    -0.5160 h1         1 SHD       0.042700
     23 H12         -2.2630     1.2300    -2.0650 ho         1 SHD       0.411000
     24 H121        -0.4770     2.4750     1.6870 ho         1 SHD       0.423000
@<TRIPOS>BOND
     1     1     2 1   
     2     1    10 1   
     3     1    12 1   
     4     1    13 1   
     5     2     3 1   
     6     2     7 1   
     7     2    14 1   
     8     3     4 1   
     9     3     8 1   
    10     3    22 1   
    11     4     5 1   
    12     4     9 1   
    13     4    15 1   
    14     5     6 1   
    15     5    10 1   
    16     5    16 1   
    17     6    11 1   
    18     6    17 1   
    19     6    18 1   
    20     7    23 1   
    21     8    19 1   
    22     9    20 1   
    23    11    21 1   
    24    13    24 1   
@<TRIPOS>SUBSTRUCTURE
     1 SHD         1 TEMP              0 ****  ****    0 ROOT
