@<TRIPOS>MOLECULE
SHF
   15    14     1     0     0
SMALL
No Charge or Current Charge


@<TRIPOS>ATOM
      1 C4          -2.0090    -0.2320    -0.5330 c          1 SHF       0.561100
      2 C5          -2.9920     0.6110     0.2820 c3         1 SHF      -0.208100
      3 C3          -0.5710     0.2980    -0.6420 c3         1 SHF      -0.151400
      4 C2           0.3710    -0.3500     0.4140 c3         1 SHF      -0.202400
      5 C1           1.7980     0.2120     0.2850 c          1 SHF       0.717000
      6 O4          -2.3550    -1.2790    -1.0670 o          1 SHF      -0.550100
      7 O1           2.0780     1.2220     0.9130 o          1 SHF      -0.742000
      8 OH1          2.5680    -0.3410    -0.4850 o          1 SHF      -0.742000
      9 H51         -3.0400     1.6160    -0.1510 hc         1 SHF       0.046033
     10 H52         -3.9870     0.1560     0.3520 hc         1 SHF       0.046033
     11 H53         -2.5620     0.8070     1.2710 hc         1 SHF       0.046033
     12 H31         -0.1830     0.0810    -1.6450 hc         1 SHF       0.060200
     13 H32         -0.5720     1.3790    -0.4610 hc         1 SHF       0.060200
     14 H21         -0.0510    -0.0920     1.3930 hc         1 SHF       0.030200
     15 H22          0.3670    -1.4260     0.2010 hc         1 SHF       0.030200
@<TRIPOS>BOND
     1     1     2 1   
     2     1     3 1   
     3     1     6 2   
     4     2     9 1   
     5     2    10 1   
     6     2    11 1   
     7     3     4 1   
     8     3    12 1   
     9     3    13 1   
    10     4     5 1   
    11     4    14 1   
    12     4    15 1   
    13     5     7 1   
    14     5     8 1   
@<TRIPOS>SUBSTRUCTURE
     1 SHF         1 TEMP              0 ****  ****    0 ROOT
