@<TRIPOS>MOLECULE
SHF
   15    14     1     0     0
SMALL
abcg2


@<TRIPOS>ATOM
      1 C4          -1.9960    -0.2070    -0.0040 c          1 SHF       0.561100
      2 C5          -3.1570     0.7530     0.0120 c3         1 SHF      -0.208100
      3 C3          -0.6300     0.4280     0.0030 c3         1 SHF      -0.151400
      4 C2           0.5350    -0.5420     0.0050 c3         1 SHF      -0.202400
      5 C1           1.9270     0.1180     0.0170 c          1 SHF       0.717000
      6 O4          -2.1620    -1.4070    -0.0180 o          1 SHF      -0.550100
      7 O1           1.9850     1.3630     0.0290 o          1 SHF      -0.742000
      8 OH1          2.8970    -0.6680     0.0140 o          1 SHF      -0.742000
      9 H51         -3.0840     1.4490    -0.8250 hc         1 SHF       0.046033
     10 H52         -4.1100     0.2300    -0.0380 hc         1 SHF       0.046033
     11 H53         -3.1290     1.3550     0.9220 hc         1 SHF       0.046033
     12 H31         -0.5770     1.1000    -0.8600 hc         1 SHF       0.060200
     13 H32         -0.5840     1.0980     0.8680 hc         1 SHF       0.060200
     14 H21          0.4670    -1.2100     0.8700 hc         1 SHF       0.030200
     15 H22          0.4790    -1.2000    -0.8670 hc         1 SHF       0.030200
@<TRIPOS>BOND
     1     1     2 1   
     2     1     3 1   
     3     1     6 2   
     4     2     9 1   
     5     2    10 1   
     6     2    11 1   
     7     3     4 1   
     8     3    12 1   
     9     3    13 1   
    10     4     5 1   
    11     4    14 1   
    12     4    15 1   
    13     5     7 1   
    14     5     8 1   
@<TRIPOS>SUBSTRUCTURE
     1 SHF         1 TEMP              0 ****  ****    0 ROOT
