@<TRIPOS>MOLECULE
SHG
   23    23     1     0     0
SMALL
No Charge or Current Charge


@<TRIPOS>ATOM
      1 C1          33.3680    16.3940     1.5870 c6         1 SHG       0.372300
      2 C2          34.4090    16.9950     2.5790 c6         1 SHG       0.173300
      3 C3          34.7210    15.9700     3.7080 c6         1 SHG       0.145300
      4 C4          33.4020    15.4850     4.3810 c6         1 SHG       0.101300
      5 C5          32.4280    14.9430     3.2820 c6         1 SHG       0.157300
      6 C6          31.0390    14.4960     3.8520 c3         1 SHG       0.166600
      7 O1          32.9050    17.3550     0.6560 oh         1 SHG      -0.622000
      8 O3          35.5950    16.5180     4.7120 oh         1 SHG      -0.641000
      9 O4          33.7080    14.4910     5.3860 oh         1 SHG      -0.727000
     10 O5          32.1920    15.9760     2.2890 os         1 SHG      -0.472000
     11 O6          30.3050    15.5620     4.4890 oh         1 SHG      -0.710000
     12 F2          35.6070    17.2830     1.8780 f          1 SHG      -0.245000
     13 H1          33.8030    15.5350     1.0550 h2         1 SHG       0.025700
     14 H2          34.0270    17.9330     3.0040 h1         1 SHG       0.093700
     15 H3          35.2010    15.0960     3.2430 h1         1 SHG       0.048700
     16 H4          32.9220    16.3590     4.8500 h1         1 SHG       0.078700
     17 H5          32.8840    14.0740     2.7840 h1         1 SHG       0.046700
     18 H61         30.4540    14.0890     3.0170 h1         1 SHG       0.031700
     19 H62         31.1990    13.6710     4.5590 h1         1 SHG       0.031700
     20 HO3         35.5130    15.9010     5.4750 ho         1 SHG       0.461000
     21 HO4         32.9220    14.4220     5.9790 ho         1 SHG       0.516000
     22 HO6         29.3970    15.2220     4.6650 ho         1 SHG       0.505000
     23 HO1         31.9400    17.1860     0.6180 ho         1 SHG       0.462000
@<TRIPOS>BOND
     1     1     2 1   
     2     1     7 1   
     3     1    10 1   
     4     1    13 1   
     5     2     3 1   
     6     2    12 1   
     7     2    14 1   
     8     3     4 1   
     9     3     8 1   
    10     3    15 1   
    11     4     5 1   
    12     4     9 1   
    13     4    16 1   
    14     5     6 1   
    15     5    10 1   
    16     5    17 1   
    17     6    11 1   
    18     6    18 1   
    19     6    19 1   
    20     7    23 1   
    21     8    20 1   
    22     9    21 1   
    23    11    22 1   
@<TRIPOS>SUBSTRUCTURE
     1 SHG         1 TEMP              0 ****  ****    0 ROOT
