@<TRIPOS>MOLECULE
SHG
   23    23     1     0     0
SMALL
bcc


@<TRIPOS>ATOM
      1 C1          33.2740    16.4190     1.6710 c6         1 SHG       0.325900
      2 C2          34.3060    16.9750     2.6440 c6         1 SHG       0.154600
      3 C3          34.6240    15.9540     3.7170 c6         1 SHG       0.122100
      4 C4          33.3310    15.4860     4.3810 c6         1 SHG       0.078100
      5 C5          32.3580    14.9910     3.3060 c6         1 SHG       0.134100
      6 C6          31.0260    14.5150     3.8410 c3         1 SHG       0.143400
      7 O1          32.9380    17.4050     0.7740 oh         1 SHG      -0.559800
      8 O3          35.5070    16.5350     4.6390 oh         1 SHG      -0.578800
      9 O4          33.6850    14.4640     5.2830 oh         1 SHG      -0.604800
     10 O5          32.1250    16.0440     2.3890 os         1 SHG      -0.425600
     11 O6          30.4060    15.5510     4.5640 oh         1 SHG      -0.587800
     12 F2          35.4640    17.2800     1.9390 f          1 SHG      -0.226300
     13 H1          33.6980    15.5320     1.1660 h2         1 SHG       0.025700
     14 H2          33.9310    17.9010     3.0940 h1         1 SHG       0.093700
     15 H3          35.0840    15.0790     3.2270 h1         1 SHG       0.048700
     16 H4          32.8820    16.3400     4.9050 h1         1 SHG       0.078700
     17 H5          32.8180    14.1320     2.7900 h1         1 SHG       0.046700
     18 H61         30.4130    14.1830     2.9940 h1         1 SHG       0.031700
     19 H62         31.2090    13.6290     4.4600 h1         1 SHG       0.031700
     20 HO3         35.6820    15.8840     5.3260 ho         1 SHG       0.422000
     21 HO4         33.0480    14.4440     6.0030 ho         1 SHG       0.417000
     22 HO6         29.5920    15.2070     4.9430 ho         1 SHG       0.406000
     23 HO1         32.5420    17.0060    -0.0090 ho         1 SHG       0.423000
@<TRIPOS>BOND
     1     1     2 1   
     2     1     7 1   
     3     1    10 1   
     4     1    13 1   
     5     2     3 1   
     6     2    12 1   
     7     2    14 1   
     8     3     4 1   
     9     3     8 1   
    10     3    15 1   
    11     4     5 1   
    12     4     9 1   
    13     4    16 1   
    14     5     6 1   
    15     5    10 1   
    16     5    17 1   
    17     6    11 1   
    18     6    18 1   
    19     6    19 1   
    20     7    23 1   
    21     8    20 1   
    22     9    21 1   
    23    11    22 1   
@<TRIPOS>SUBSTRUCTURE
     1 SHG         1 TEMP              0 ****  ****    0 ROOT
