@<TRIPOS>MOLECULE
SHH
   39    39     1     0     0
SMALL
abcg2


@<TRIPOS>ATOM
      1 O1          -0.2230    -0.5640     8.6430 oh         1 SHH      -0.426100
      2 O2          -0.8970     1.1260     6.6350 o          1 SHH      -0.570100
      3 N1           0.2390    -0.6830     7.3660 ns         1 SHH      -0.389400
      4 C1          -0.0660     0.2540     6.4480 c          1 SHH       0.601100
      5 C2           0.7010     0.1060     5.1550 c3         1 SHH      -0.159400
      6 C3          -0.2050     0.1690     3.9290 c3         1 SHH      -0.067400
      7 C4           0.5860     0.1050     2.6300 c3         1 SHH      -0.075400
      8 C5          -0.3070     0.1480     1.3960 c3         1 SHH      -0.077400
      9 C6           0.4820     0.1380     0.0930 c3         1 SHH      -0.065400
     10 C7          -0.4350     0.1720    -1.1190 c3         1 SHH      -0.160400
     11 C8           0.2970     0.2340    -2.4430 c          1 SHH       0.608100
     12 O3           1.4660     0.5590    -2.5380 o          1 SHH      -0.577100
     13 N2          -0.4880    -0.0850    -3.5070 ns         1 SHH      -0.151000
     14 C9          -0.1960    -0.0650    -4.8730 ca         1 SHH      -0.018000
     15 C10          1.0560     0.2410    -5.4100 ca         1 SHH      -0.152000
     16 C11          1.2340     0.2300    -6.7880 ca         1 SHH      -0.083000
     17 C12          0.1930    -0.0800    -7.6490 ca         1 SHH      -0.138000
     18 C13         -1.0520    -0.3860    -7.1130 ca         1 SHH      -0.083000
     19 C14         -1.2460    -0.3790    -5.7430 ca         1 SHH      -0.152000
     20 HO1         -0.9990    -1.1350     8.7010 ho         1 SHH       0.446000
     21 HN1          1.0320    -1.3000     7.2620 hn         1 SHH       0.332500
     22 H21          1.4290     0.9230     5.1150 hc         1 SHH       0.060200
     23 H22          1.2790    -0.8220     5.1440 hc         1 SHH       0.060200
     24 H31         -0.9220    -0.6570     3.9630 hc         1 SHH       0.054200
     25 H32         -0.7900     1.0920     3.9540 hc         1 SHH       0.054200
     26 H41          1.2940     0.9400     2.5950 hc         1 SHH       0.040700
     27 H42          1.1900    -0.8080     2.6100 hc         1 SHH       0.040700
     28 H51         -0.9960    -0.7040     1.4170 hc         1 SHH       0.039200
     29 H52         -0.9330     1.0460     1.4330 hc         1 SHH       0.039200
     30 H61          1.1580     0.9960     0.0720 hc         1 SHH       0.056700
     31 H62          1.1140    -0.7550     0.0540 hc         1 SHH       0.056700
     32 H71         -1.1050    -0.6930    -1.1090 hc         1 SHH       0.058200
     33 H72         -1.0880     1.0510    -1.0650 hc         1 SHH       0.058200
     34 HN2         -1.4390    -0.3420    -3.2850 hn         1 SHH       0.147000
     35 H101         1.8890     0.4840    -4.7710 ha         1 SHH       0.126500
     36 H111         2.2110     0.4720    -7.1870 ha         1 SHH       0.112500
     37 H121         0.3460    -0.0850    -8.7200 ha         1 SHH       0.115000
     38 H131        -1.8820    -0.6320    -7.7630 ha         1 SHH       0.112500
     39 H141        -2.2220    -0.6220    -5.3390 ha         1 SHH       0.126500
@<TRIPOS>BOND
     1     1     3 1   
     2     1    20 1   
     3     2     4 2   
     4     3     4 1   
     5     3    21 1   
     6     4     5 1   
     7     5     6 1   
     8     5    22 1   
     9     5    23 1   
    10     6     7 1   
    11     6    24 1   
    12     6    25 1   
    13     7     8 1   
    14     7    26 1   
    15     7    27 1   
    16     8     9 1   
    17     8    28 1   
    18     8    29 1   
    19     9    10 1   
    20     9    30 1   
    21     9    31 1   
    22    10    11 1   
    23    10    32 1   
    24    10    33 1   
    25    11    12 2   
    26    11    13 1   
    27    13    14 1   
    28    13    34 1   
    29    14    15 ar  
    30    14    19 ar  
    31    15    16 ar  
    32    15    35 1   
    33    16    17 ar  
    34    16    36 1   
    35    17    18 ar  
    36    17    37 1   
    37    18    19 ar  
    38    18    38 1   
    39    19    39 1   
@<TRIPOS>SUBSTRUCTURE
     1 SHH         1 TEMP              0 ****  ****    0 ROOT
