@<TRIPOS>MOLECULE
SHH
   39    39     1     0     0
SMALL
No Charge or Current Charge


@<TRIPOS>ATOM
      1 O1          -0.4800    -1.5480     8.2930 oh         1 SHH      -0.426100
      2 O2           0.0360     0.8950     6.9920 o          1 SHH      -0.570100
      3 N1          -0.1030    -1.3940     6.9030 ns         1 SHH      -0.389400
      4 C1           0.2350    -0.1490     6.3840 c          1 SHH       0.601100
      5 C2           0.9020    -0.1790     5.0020 c3         1 SHH      -0.159400
      6 C3          -0.0540     0.3230     3.8940 c3         1 SHH      -0.067400
      7 C4           0.5880     0.3040     2.4890 c3         1 SHH      -0.075400
      8 C5          -0.3650     0.8050     1.3830 c3         1 SHH      -0.077400
      9 C6           0.2770     0.7870    -0.0220 c3         1 SHH      -0.065400
     10 C7          -0.6800     1.2900    -1.1300 c3         1 SHH      -0.160400
     11 C8          -0.0150     1.2560    -2.5130 c          1 SHH       0.608100
     12 O3           0.8330     2.0810    -2.8330 o          1 SHH      -0.577100
     13 N2          -0.4870     0.2490    -3.3470 ns         1 SHH      -0.151000
     14 C9          -0.1510    -0.1340    -4.6750 ca         1 SHH      -0.018000
     15 C10          0.8980     0.4530    -5.4170 ca         1 SHH      -0.152000
     16 C11          1.1740     0.0170    -6.7250 ca         1 SHH      -0.083000
     17 C12          0.4090    -1.0080    -7.3040 ca         1 SHH      -0.138000
     18 C13         -0.6320    -1.6000    -6.5730 ca         1 SHH      -0.083000
     19 C14         -0.9080    -1.1650    -5.2650 ca         1 SHH      -0.152000
     20 HO1         -1.3140    -2.0730     8.2520 ho         1 SHH       0.446000
     21 HN1          0.2210    -2.2360     6.4280 hn         1 SHH       0.332500
     22 H21          1.7800     0.4770     5.0250 hc         1 SHH       0.060200
     23 H22          1.2120    -1.2020     4.7580 hc         1 SHH       0.060200
     24 H31         -0.9570    -0.3020     3.8860 hc         1 SHH       0.054200
     25 H32         -0.3770     1.3450     4.1290 hc         1 SHH       0.054200
     26 H41          1.4900     0.9290     2.4980 hc         1 SHH       0.040700
     27 H42          0.9090    -0.7180     2.2530 hc         1 SHH       0.040700
     28 H51         -1.2680     0.1810     1.3750 hc         1 SHH       0.039200
     29 H52         -0.6860     1.8280     1.6190 hc         1 SHH       0.039200
     30 H61          1.1800     1.4110    -0.0130 hc         1 SHH       0.056700
     31 H62          0.5980    -0.2360    -0.2590 hc         1 SHH       0.056700
     32 H71         -1.5750     0.6560    -1.1290 hc         1 SHH       0.058200
     33 H72         -0.9600     2.3260    -0.9020 hc         1 SHH       0.058200
     34 HN2         -1.2050    -0.3270    -2.9280 hn         1 SHH       0.147000
     35 H101         1.5150     1.2420    -5.0000 ha         1 SHH       0.126500
     36 H111         1.9840     0.4750    -7.2910 ha         1 SHH       0.112500
     37 H121         0.6240    -1.3440    -8.3160 ha         1 SHH       0.115000
     38 H131        -1.2260    -2.3960    -7.0190 ha         1 SHH       0.112500
     39 H141        -1.7180    -1.6320    -4.7090 ha         1 SHH       0.126500
@<TRIPOS>BOND
     1     1     3 1   
     2     1    20 1   
     3     2     4 2   
     4     3     4 1   
     5     3    21 1   
     6     4     5 1   
     7     5     6 1   
     8     5    22 1   
     9     5    23 1   
    10     6     7 1   
    11     6    24 1   
    12     6    25 1   
    13     7     8 1   
    14     7    26 1   
    15     7    27 1   
    16     8     9 1   
    17     8    28 1   
    18     8    29 1   
    19     9    10 1   
    20     9    30 1   
    21     9    31 1   
    22    10    11 1   
    23    10    32 1   
    24    10    33 1   
    25    11    12 2   
    26    11    13 1   
    27    13    14 1   
    28    13    34 1   
    29    14    15 ar  
    30    14    19 ar  
    31    15    16 ar  
    32    15    35 1   
    33    16    17 ar  
    34    16    36 1   
    35    17    18 ar  
    36    17    37 1   
    37    18    19 ar  
    38    18    38 1   
    39    19    39 1   
@<TRIPOS>SUBSTRUCTURE
     1 SHH         1 TEMP              0 ****  ****    0 ROOT
