@<TRIPOS>MOLECULE
SHI
   19    19     1     0     0
SMALL
No Charge or Current Charge


@<TRIPOS>ATOM
      1 O1           1.1440    -0.1720    -3.1740 os         1 SHI      -0.090700
      2 N2          -0.2250     0.2670    -3.2570 nc         1 SHI      -0.423300
      3 C5           1.3850    -0.6220    -1.8960 cc         1 SHI       0.153900
      4 C4           0.2500    -0.4860    -1.1480 cd         1 SHI      -0.234300
      5 C3          -0.6880     0.0560    -2.0460 cd         1 SHI       0.501300
      6 O31         -1.9620     0.3390    -1.7400 oh         1 SHI      -0.636300
      7 C41          0.0560    -0.8630     0.3070 c3         1 SHI      -0.042100
      8 C42          0.0050     0.3540     1.2700 c3         1 SHI       0.023500
      9 N1           1.2500     1.1910     1.1150 n8         1 SHI      -0.988200
     10 C43         -0.3580    -0.1160     2.7410 c          1 SHI       0.723000
     11 O41          0.4860    -0.7270     3.3860 o          1 SHI      -0.725500
     12 O42         -1.4460     0.2070     3.2000 o          1 SHI      -0.725500
     13 HC5          2.3720    -0.9970    -1.6650 h4         1 SHI       0.048100
     14 H31         -2.0560     0.0820    -0.8020 ho         1 SHI       0.496000
     15 H411         0.8620    -1.5360     0.6270 hc         1 SHI       0.057200
     16 H412        -0.8700    -1.4410     0.4190 hc         1 SHI       0.057200
     17 HC42        -0.8310     0.9870     0.9410 h1         1 SHI       0.042700
     18 HN11         2.0470     0.6680     1.4980 hn         1 SHI       0.380500
     19 HN12         1.4690     1.2800     0.1170 hn         1 SHI       0.380500
@<TRIPOS>BOND
     1     1     2 1   
     2     1     3 1   
     3     2     5 2   
     4     3     4 2   
     5     3    13 1   
     6     4     5 1   
     7     4     7 1   
     8     5     6 1   
     9     6    14 1   
    10     7     8 1   
    11     7    15 1   
    12     7    16 1   
    13     8     9 1   
    14     8    10 1   
    15     8    17 1   
    16     9    18 1   
    17     9    19 1   
    18    10    11 1   
    19    10    12 1   
@<TRIPOS>SUBSTRUCTURE
     1 SHI         1 TEMP              0 ****  ****    0 ROOT
