@<TRIPOS>MOLECULE
SHI
   19    19     1     0     0
SMALL
bcc


@<TRIPOS>ATOM
      1 O1           1.1140    -0.1450    -3.0980 os         1 SHI      -0.135100
      2 N2          -0.1830     0.2760    -3.2020 nc         1 SHI      -0.423300
      3 C5           1.3320    -0.6120    -1.8680 cc         1 SHI       0.263600
      4 C4           0.2130    -0.5270    -1.1140 cd         1 SHI      -0.364900
      5 C3          -0.7100     0.0550    -2.0340 cd         1 SHI       0.566600
      6 O31         -1.9830     0.3790    -1.8270 oh         1 SHI      -0.597300
      7 C41         -0.0130    -0.8580     0.3190 c3         1 SHI      -0.042100
      8 C42          0.0630     0.3870     1.2360 c3         1 SHI       0.023500
      9 N1           1.3130     1.1110     1.1600 n8         1 SHI      -0.877800
     10 C43         -0.2380    -0.0750     2.6820 c          1 SHI       0.933600
     11 O41          0.7110    -0.0930     3.4880 o          1 SHI      -0.830800
     12 O42         -1.4130    -0.4270     2.9010 o          1 SHI      -0.830800
     13 HC5          2.3240    -0.9830    -1.6560 h4         1 SHI       0.048100
     14 H31         -2.2840     0.0560    -0.9700 ho         1 SHI       0.457000
     15 H411         0.7310    -1.5910     0.6410 hc         1 SHI       0.057200
     16 H412        -0.9880    -1.3360     0.4440 hc         1 SHI       0.057200
     17 HC42        -0.7450     1.0650     0.9350 h1         1 SHI       0.042700
     18 HN11         2.0270     0.5930     1.6560 hn         1 SHI       0.325300
     19 HN12         1.6190     1.1980     0.1980 hn         1 SHI       0.325300
@<TRIPOS>BOND
     1     1     2 1   
     2     1     3 1   
     3     2     5 2   
     4     3     4 2   
     5     3    13 1   
     6     4     5 1   
     7     4     7 1   
     8     5     6 1   
     9     6    14 1   
    10     7     8 1   
    11     7    15 1   
    12     7    16 1   
    13     8     9 1   
    14     8    10 1   
    15     8    17 1   
    16     9    18 1   
    17     9    19 1   
    18    10    11 1   
    19    10    12 1   
@<TRIPOS>SUBSTRUCTURE
     1 SHI         1 TEMP              0 ****  ****    0 ROOT
