@<TRIPOS>MOLECULE
SHL
   17    17     1     0     0
SMALL
No Charge or Current Charge


@<TRIPOS>ATOM
      1 OAD          3.1360    -1.0880    -0.0060 o          1 SHL      -0.675000
      2 CAH          2.5110    -0.0330    -0.0060 c          1 SHL       0.728200
      3 OAA          3.0750     1.0560    -0.0160 o          1 SHL      -0.675000
      4 CAK          1.0030    -0.0710     0.0060 cc         1 SHL       0.068900
      5 OAG          0.3100     1.1410     0.0060 os         1 SHL      -0.153200
      6 CAF         -1.0810     1.1740     0.0170 cc         1 SHL       0.050900
      7 CAL         -1.6720     2.5590     0.0150 c3         1 SHL      -0.028900
      8 CAJ         -1.8020    -0.0050     0.0280 cd         1 SHL      -0.109100
      9 OAC         -3.1670    -0.0480     0.0390 oh         1 SHL      -0.548100
     10 CAI         -1.1520    -1.3250     0.0290 c          1 SHL       0.556500
     11 CAE          0.2860    -1.2590     0.0170 cd         1 SHL      -0.418200
     12 OAB         -1.7700    -2.3830     0.0390 o          1 SHL      -0.644100
     13 H2          -0.8910     3.3290     0.0050 hc         1 SHL       0.048033
     14 H3          -2.3040     2.7100    -0.8670 hc         1 SHL       0.048033
     15 H4          -2.2890     2.7190     0.9070 hc         1 SHL       0.048033
     16 H5          -3.4160    -1.0040     0.0460 ho         1 SHL       0.475000
     17 H6           0.7790    -2.2230     0.0180 ha         1 SHL       0.227000
@<TRIPOS>BOND
     1     1     2 1   
     2     2     3 1   
     3     2     4 1   
     4     4     5 1   
     5     4    11 2   
     6     5     6 1   
     7     6     7 1   
     8     6     8 2   
     9     7    13 1   
    10     7    14 1   
    11     7    15 1   
    12     8     9 1   
    13     8    10 1   
    14     9    16 1   
    15    10    11 1   
    16    10    12 2   
    17    11    17 1   
@<TRIPOS>SUBSTRUCTURE
     1 SHL         1 TEMP              0 ****  ****    0 ROOT
