@<TRIPOS>MOLECULE
SHL
   17    17     1     0     0
SMALL
bcc


@<TRIPOS>ATOM
      1 OAD          3.0930    -1.0360    -0.0020 o          1 SHL      -0.780300
      2 CAH          2.4710     0.0370     0.0050 c          1 SHL       0.938800
      3 OAA          2.9050     1.1960     0.0080 o          1 SHL      -0.780300
      4 CAK          0.9470    -0.1050     0.0110 cc         1 SHL       0.068900
      5 OAG          0.2950     1.0570     0.0080 os         1 SHL      -0.153200
      6 CAF         -1.0490     1.1120     0.0120 cc         1 SHL       0.050900
      7 CAL         -1.6150     2.4880     0.0160 c3         1 SHL      -0.028900
      8 CAJ         -1.7810    -0.0250     0.0190 cd         1 SHL      -0.109100
      9 OAC         -3.1240     0.0320     0.0250 oh         1 SHL      -0.509100
     10 CAI         -1.1470    -1.3290     0.0230 c          1 SHL       0.556500
     11 CAE          0.2880    -1.2840     0.0170 cd         1 SHL      -0.368200
     12 OAB         -1.8350    -2.3550     0.0300 o          1 SHL      -0.644100
     13 H2          -0.8280     3.2340    -0.0750 hc         1 SHL       0.048033
     14 H3          -2.3140     2.6280    -0.8090 hc         1 SHL       0.048033
     15 H4          -2.1610     2.6840     0.9410 hc         1 SHL       0.048033
     16 H5          -3.4490    -0.8810     0.0280 ho         1 SHL       0.436000
     17 H6           0.8580    -2.2020     0.0190 ha         1 SHL       0.177000
@<TRIPOS>BOND
     1     1     2 1   
     2     2     3 1   
     3     2     4 1   
     4     4     5 1   
     5     4    11 2   
     6     5     6 1   
     7     6     7 1   
     8     6     8 2   
     9     7    13 1   
    10     7    14 1   
    11     7    15 1   
    12     8     9 1   
    13     8    10 1   
    14     9    16 1   
    15    10    11 1   
    16    10    12 2   
    17    11    17 1   
@<TRIPOS>SUBSTRUCTURE
     1 SHL         1 TEMP              0 ****  ****    0 ROOT
