@<TRIPOS>MOLECULE
SHM
   34    35     1     0     0
SMALL
No Charge or Current Charge


@<TRIPOS>ATOM
      1 C1           0.7460    -0.6540    -4.1250 c5         1 SHM       0.101700
      2 C2          -0.1610    -1.1560    -2.9260 c5         1 SHM       0.094700
      3 N3          -1.3730    -0.3460    -3.0960 ns         1 SHM      -0.504900
      4 C4          -1.3140     0.4770    -4.1660 c          1 SHM       0.611000
      5 N5          -0.1330     0.3010    -4.8030 ns         1 SHM      -0.525900
      6 C6           0.5240    -0.7090    -1.5820 c5         1 SHM       0.075300
      7 S7           1.2910     0.9340    -1.9490 ss         1 SHM      -0.391000
      8 C8           1.9080     0.2180    -3.5400 c5         1 SHM       0.021600
      9 C9          -0.3950    -0.6480    -0.3320 c3         1 SHM      -0.061400
     10 C10          0.3560    -0.4040     0.9980 c3         1 SHM      -0.077400
     11 C11         -0.5800    -0.3920     2.2270 c3         1 SHM      -0.079400
     12 C12          0.1700    -0.1490     3.5560 c3         1 SHM      -0.054400
     13 C13         -0.7660    -0.1380     4.7900 c3         1 SHM      -0.204400
     14 C14          0.0490     0.1070     6.0730 c          1 SHM       0.717000
     15 O15          0.2370     1.2610     6.4270 o          1 SHM      -0.742500
     16 O16          0.5130    -0.8620     6.6560 o          1 SHM      -0.742500
     17 O17         -2.1910     1.2440    -4.5140 o          1 SHM      -0.589000
     18 H11          1.0970    -1.4610    -4.7830 h1         1 SHM       0.062700
     19 H12         -0.3660    -2.2340    -2.9640 h1         1 SHM       0.058700
     20 HN3         -2.1970    -0.3430    -2.5080 hn         1 SHM       0.339500
     21 HN5          0.0760     0.8470    -5.6290 hn         1 SHM       0.335500
     22 H6           1.3380    -1.4120    -1.3580 h1         1 SHM       0.069700
     23 H81          2.2340     1.0100    -4.2280 h1         1 SHM       0.071700
     24 H82          2.7810    -0.4110    -3.3210 h1         1 SHM       0.071700
     25 H11A        -0.9440    -1.5940    -0.2480 hc         1 SHM       0.047700
     26 H21         -1.1480     0.1390    -0.4560 hc         1 SHM       0.047700
     27 H12A         0.8880     0.5540     0.9460 hc         1 SHM       0.042200
     28 H22          1.1150    -1.1840     1.1310 hc         1 SHM       0.042200
     29 H13         -1.1120    -1.3500     2.2840 hc         1 SHM       0.025200
     30 H23         -1.3390     0.3890     2.0940 hc         1 SHM       0.025200
     31 H14          0.7030     0.8080     3.4990 hc         1 SHM       0.039200
     32 H24          0.9300    -0.9290     3.6880 hc         1 SHM       0.039200
     33 H15         -1.2370    -1.1280     4.8180 hc         1 SHM       0.014700
     34 H25         -1.4740     0.6830     4.6230 hc         1 SHM       0.014700
@<TRIPOS>BOND
     1     1     2 1   
     2     1     5 1   
     3     1     8 1   
     4     1    18 1   
     5     2     3 1   
     6     2     6 1   
     7     2    19 1   
     8     3     4 1   
     9     3    20 1   
    10     4     5 1   
    11     4    17 2   
    12     5    21 1   
    13     6     7 1   
    14     6     9 1   
    15     6    22 1   
    16     7     8 1   
    17     8    23 1   
    18     8    24 1   
    19     9    10 1   
    20     9    25 1   
    21     9    26 1   
    22    10    11 1   
    23    10    27 1   
    24    10    28 1   
    25    11    12 1   
    26    11    29 1   
    27    11    30 1   
    28    12    13 1   
    29    12    31 1   
    30    12    32 1   
    31    13    14 1   
    32    13    33 1   
    33    13    34 1   
    34    14    15 1   
    35    14    16 1   
@<TRIPOS>SUBSTRUCTURE
     1 SHM         1 TEMP              0 ****  ****    0 ROOT
