@<TRIPOS>MOLECULE
SHM
   34    35     1     0     0
SMALL
abcg2


@<TRIPOS>ATOM
      1 C1           0.7250    -0.5200    -4.0460 c5         1 SHM       0.101700
      2 C2          -0.1160    -1.0260    -2.8380 c5         1 SHM       0.094700
      3 N3          -1.3780    -0.3580    -3.0300 ns         1 SHM      -0.504900
      4 C4          -1.4600     0.3090    -4.2140 c          1 SHM       0.611000
      5 N5          -0.2550     0.1900    -4.8250 ns         1 SHM      -0.525900
      6 C6           0.5890    -0.6180    -1.5400 c5         1 SHM       0.075300
      7 S7           1.3280     1.0050    -1.9150 ss         1 SHM      -0.391000
      8 C8           1.8630     0.3660    -3.5240 c5         1 SHM       0.021600
      9 C9          -0.3150    -0.5870    -0.3200 c3         1 SHM      -0.061400
     10 C10          0.4270    -0.3350     0.9870 c3         1 SHM      -0.077400
     11 C11         -0.4960    -0.3780     2.1990 c3         1 SHM      -0.079400
     12 C12          0.2330    -0.1600     3.5190 c3         1 SHM      -0.054400
     13 C13         -0.7030    -0.2090     4.7160 c3         1 SHM      -0.204400
     14 C14         -0.0500     0.0000     6.0940 c          1 SHM       0.717000
     15 O15          1.1300     0.4010     6.1240 o          1 SHM      -0.742500
     16 O16         -0.7730    -0.2380     7.0860 o          1 SHM      -0.742500
     17 O17         -2.4400     0.8960    -4.6480 o          1 SHM      -0.589000
     18 H11          1.1500    -1.3480    -4.6170 h1         1 SHM       0.062700
     19 H12         -0.2380    -2.1140    -2.8550 h1         1 SHM       0.058700
     20 HN3         -2.2150    -0.6570    -2.5590 hn         1 SHM       0.339500
     21 HN5         -0.0180     0.7360    -5.6360 hn         1 SHM       0.335500
     22 H6           1.4040    -1.3290    -1.3670 h1         1 SHM       0.069700
     23 H81          2.0870     1.1900    -4.2010 h1         1 SHM       0.071700
     24 H82          2.7710    -0.2260    -3.3990 h1         1 SHM       0.071700
     25 H11A        -0.8260    -1.5550    -0.2590 hc         1 SHM       0.047700
     26 H21         -1.0930     0.1680    -0.4590 hc         1 SHM       0.047700
     27 H12A         0.9300     0.6370     0.9510 hc         1 SHM       0.042200
     28 H22          1.2180    -1.0840     1.1040 hc         1 SHM       0.042200
     29 H13         -1.0140    -1.3440     2.2220 hc         1 SHM       0.025200
     30 H23         -1.2790     0.3800     2.0830 hc         1 SHM       0.025200
     31 H14          0.7500     0.8040     3.4950 hc         1 SHM       0.039200
     32 H24          1.0140    -0.9180     3.6280 hc         1 SHM       0.039200
     33 H15         -1.2420    -1.1630     4.7270 hc         1 SHM       0.014700
     34 H25         -1.4830     0.5530     4.5980 hc         1 SHM       0.014700
@<TRIPOS>BOND
     1     1     2 1   
     2     1     5 1   
     3     1     8 1   
     4     1    18 1   
     5     2     3 1   
     6     2     6 1   
     7     2    19 1   
     8     3     4 1   
     9     3    20 1   
    10     4     5 1   
    11     4    17 2   
    12     5    21 1   
    13     6     7 1   
    14     6     9 1   
    15     6    22 1   
    16     7     8 1   
    17     8    23 1   
    18     8    24 1   
    19     9    10 1   
    20     9    25 1   
    21     9    26 1   
    22    10    11 1   
    23    10    27 1   
    24    10    28 1   
    25    11    12 1   
    26    11    29 1   
    27    11    30 1   
    28    12    13 1   
    29    12    31 1   
    30    12    32 1   
    31    13    14 1   
    32    13    33 1   
    33    13    34 1   
    34    14    15 1   
    35    14    16 1   
@<TRIPOS>SUBSTRUCTURE
     1 SHM         1 TEMP              0 ****  ****    0 ROOT
