@<TRIPOS>MOLECULE
SHN
  100   104     1     0     0
SMALL
No Charge or Current Charge


@<TRIPOS>ATOM
      1 C2A         -3.2950     3.3700     0.0950 c5         1 SHN      -0.006800
      2 C2B         -3.3000    -2.7610    -1.3300 c5         1 SHN      -0.004800
      3 CMA         -3.6100     4.5310     1.0910 c3         1 SHN      -0.056100
      4 CMB         -4.7490    -3.1200    -0.8690 c3         1 SHN      -0.085100
      5 NB          -1.5350    -1.6410    -0.2460 nu         1 SHN      -0.635000
      6 ND           1.0500     1.8290     0.5180 na         1 SHN      -0.045000
      7 C1A         -1.8940     2.7480     0.3120 ce         1 SHN       0.099400
      8 C1B         -2.8120    -1.4390    -0.6810 c2         1 SHN       0.246800
      9 C1C          1.4460    -2.4800    -0.1920 cc         1 SHN       0.499900
     10 C1D          2.4070     1.6950     0.7200 cc         1 SHN      -0.205800
     11 C2C          2.7880    -2.9850    -0.2810 cc         1 SHN      -0.178800
     12 C2D          2.8080     2.9850     1.0080 cd         1 SHN      -0.102300
     13 C3A         -4.1690     2.0580     0.3310 c5         1 SHN      -0.143000
     14 C3B         -2.1840    -3.8240    -0.8530 c5         1 SHN      -0.044500
     15 C3C          3.6110    -1.9380     0.0330 cd         1 SHN      -0.128200
     16 C3D          1.7180     3.8410     0.9420 cc         1 SHN      -0.123300
     17 C4A         -3.1600     0.9190     0.0900 cf         1 SHN       0.538600
     18 C4B         -1.0490    -2.8910    -0.4480 c2         1 SHN       0.120800
     19 C4C          2.7140    -0.8470     0.2800 cd         1 SHN       0.028600
     20 C4D          0.5870     3.1180     0.6340 cd         1 SHN      -0.071800
     21 CAA         -4.8070     1.8950     1.7470 c3         1 SHN      -0.037400
     22 CAB         -2.6080    -4.7700     0.3170 c3         1 SHN      -0.037400
     23 CAC          5.1270    -1.9420     0.0890 c3         1 SHN       0.010800
     24 CAD          4.2360     3.3570     1.3720 c3         1 SHN       0.021900
     25 CBA         -5.6180     0.5890     1.9550 c3         1 SHN      -0.195400
     26 CBB         -1.5380    -5.7840     0.7930 c3         1 SHN      -0.194400
     27 CBC          5.7710    -1.4630    -1.2320 c3         1 SHN      -0.194400
     28 CBD          5.1070     3.7160     0.1480 c3         1 SHN      -0.201400
     29 CCA         -6.3340     0.6170     3.3170 c          1 SHN       0.713000
     30 CCB         -2.1600    -6.7920     1.7760 c          1 SHN       0.726000
     31 CCC          7.2940    -1.6690    -1.1790 c          1 SHN       0.722000
     32 CCD          6.5010     4.1590     0.6120 c          1 SHN       0.725000
     33 CDA         -3.3940     3.9040    -1.3780 c3         1 SHN      -0.194400
     34 CDC          3.1870    -4.4030    -0.6720 c3         1 SHN      -0.147200
     35 CDD          1.7220     5.3460     1.1940 c3         1 SHN      -0.123100
     36 CEA         -4.7660     4.5170    -1.7310 c          1 SHN       0.720000
     37 CEC          3.1590    -5.3930     0.5140 c          1 SHN       0.725000
     38 CED          1.6480     6.2010    -0.1000 c          1 SHN       0.723000
     39 CHA         -0.8020     3.5480     0.4870 cf         1 SHN      -0.196200
     40 CHB         -3.5500    -0.3180    -0.5600 cf         1 SHN      -0.432600
     41 CHC          0.2450    -3.2770    -0.4550 ce         1 SHN      -0.323600
     42 CHD          3.1330     0.4300     0.6100 ce         1 SHN      -0.025200
     43 NA          -1.9530     1.3630     0.1980 ne         1 SHN      -0.667300
     44 NC           1.3750    -1.1900     0.1370 nd         1 SHN      -0.646300
     45 O1A         -5.7390     0.1930     4.2960 o          1 SHN      -0.790000
     46 O1B         -2.6560    -7.8120     1.3230 o          1 SHN      -0.785500
     47 O1C          4.1500    -5.4770     1.2260 o          1 SHN      -0.761500
     48 O1D          7.3620     3.3060     0.7600 o          1 SHN      -0.793000
     49 O2A         -7.4550     1.1000     3.3740 o          1 SHN      -0.790000
     50 O2B         -2.1820    -6.5090     2.9650 o          1 SHN      -0.785500
     51 O2C          2.1140    -5.9770     0.7560 o          1 SHN      -0.761500
     52 O2D          6.6860     5.3410     0.8560 o          1 SHN      -0.793000
     53 O3A         -4.9260     5.7180    -1.5730 o          1 SHN      -0.781000
     54 O3B         -1.2650    -3.1060    -3.9160 o          1 SHN      -0.752000
     55 O3C          7.7490    -2.7340    -1.5660 o          1 SHN      -0.785500
     56 O3D          2.6910     6.5010    -0.6640 o          1 SHN      -0.761000
     57 O4A         -5.6310     3.7870    -2.1890 o          1 SHN      -0.781000
     58 O4B         -1.7880    -1.0310    -3.7080 o          1 SHN      -0.752000
     59 O4C          7.9870    -0.7740    -0.7190 o          1 SHN      -0.785500
     60 O4D          0.5480     6.4950    -0.5470 o          1 SHN      -0.761000
     61 H1          -3.0530     5.4420     0.8440 hc         1 SHN       0.018033
     62 H2          -4.6750     4.7930     1.0810 hc         1 SHN       0.018033
     63 H3          -3.3450     4.2610     2.1200 hc         1 SHN       0.018033
     64 H4          -5.4890    -2.4080    -1.2520 hc         1 SHN       0.025033
     65 H5          -5.0490    -4.1120    -1.2280 hc         1 SHN       0.025033
     66 H6          -4.8390    -3.1120     0.2240 hc         1 SHN       0.025033
     67 H7          -4.0270     1.9460     2.5170 hc         1 SHN       0.031200
     68 H8          -5.4870     2.7340     1.9370 hc         1 SHN       0.031200
     69 H9          -2.9260    -4.1730     1.1810 hc         1 SHN       0.036700
     70 H10         -3.4830    -5.3530     0.0030 hc         1 SHN       0.036700
     71 H11          5.4840    -1.3180     0.9170 hc         1 SHN       0.031200
     72 H12          5.4880    -2.9520     0.3150 hc         1 SHN       0.031200
     73 H13          4.2540     4.1880     2.0860 hc         1 SHN       0.018700
     74 H14          4.7090     2.5230     1.9050 hc         1 SHN       0.018700
     75 H15         -6.3530     0.5540     1.1420 hc         1 SHN       0.032700
     76 H16         -4.8910    -0.2320     1.9320 hc         1 SHN       0.032700
     77 H17         -1.1850    -6.3010    -0.1070 hc         1 SHN       0.027200
     78 H18         -0.7660    -5.1930     1.3000 hc         1 SHN       0.027200
     79 H19          5.3320    -2.0820    -2.0230 hc         1 SHN       0.029700
     80 H20          5.5260    -0.3970    -1.3170 hc         1 SHN       0.029700
     81 H21          5.1730     2.8010    -0.4520 hc         1 SHN       0.052700
     82 H22          4.5950     4.5420    -0.3570 hc         1 SHN       0.052700
     83 H23         -2.6240     4.6780    -1.4790 hc         1 SHN       0.045700
     84 H24         -3.2130     3.0400    -2.0280 hc         1 SHN       0.045700
     85 H25         -3.6590    -3.6110    -3.2710 hc         1 SHN       0.014200
     86 H26         -4.1030    -1.8450    -3.1050 hc         1 SHN       0.014200
     87 H27          2.4860    -4.7300    -1.4480 hc         1 SHN       0.021700
     88 H28          4.2100    -4.3390    -1.0600 hc         1 SHN       0.021700
     89 H29          0.8380     5.5470     1.8120 hc         1 SHN       0.004700
     90 H30          2.6470     5.5910     1.7240 hc         1 SHN       0.004700
     91 H31         -0.9540     4.6240     0.5140 ha         1 SHN       0.178000
     92 H32         -4.5660    -0.3260    -0.9400 ha         1 SHN       0.184000
     93 H33          0.4610    -4.3120    -0.6930 ha         1 SHN       0.203000
     94 H34          4.2090     0.5410     0.7110 ha         1 SHN       0.187000
     95 H45         -0.8920    -0.8540    -0.1600 hn         1 SHN       0.552000
     96 H46          0.4380     1.0500     0.3040 hn         1 SHN       0.392000
     97 H47         -4.9950     1.9920    -0.3830 hc         1 SHN       0.093700
     98 H48         -1.8800    -4.4740    -1.6810 hc         1 SHN       0.095700
     99 CDB         -3.3610    -2.6250    -2.8930 c3         1 SHN      -0.184400
    100 CEB         -2.0150    -2.2190    -3.5350 c          1 SHN       0.720000
@<TRIPOS>BOND
     1     1     3 1   
     2     1     7 1   
     3     1    13 1   
     4     1    33 1   
     5     2     4 1   
     6     2     8 1   
     7     2    14 1   
     8     2    99 1   
     9     3    61 1   
    10     3    62 1   
    11     3    63 1   
    12     4    64 1   
    13     4    65 1   
    14     4    66 1   
    15     5     8 1   
    16     5    18 1   
    17     5    95 1   
    18     6    10 1   
    19     6    20 1   
    20     6    96 1   
    21     7    39 2   
    22     7    43 1   
    23     8    40 2   
    24     9    11 1   
    25     9    41 1   
    26     9    44 2   
    27    10    12 2   
    28    10    42 1   
    29    11    15 2   
    30    11    34 1   
    31    12    16 1   
    32    12    24 1   
    33    13    17 1   
    34    13    21 1   
    35    13    97 1   
    36    14    18 1   
    37    14    22 1   
    38    14    98 1   
    39    15    19 1   
    40    15    23 1   
    41    16    20 2   
    42    16    35 1   
    43    17    40 1   
    44    17    43 2   
    45    18    41 2   
    46    19    42 2   
    47    19    44 1   
    48    20    39 1   
    49    21    25 1   
    50    21    67 1   
    51    21    68 1   
    52    22    26 1   
    53    22    69 1   
    54    22    70 1   
    55    23    27 1   
    56    23    71 1   
    57    23    72 1   
    58    24    28 1   
    59    24    73 1   
    60    24    74 1   
    61    25    29 1   
    62    25    75 1   
    63    25    76 1   
    64    26    30 1   
    65    26    77 1   
    66    26    78 1   
    67    27    31 1   
    68    27    79 1   
    69    27    80 1   
    70    28    32 1   
    71    28    81 1   
    72    28    82 1   
    73    29    45 1   
    74    29    49 1   
    75    30    46 1   
    76    30    50 1   
    77    31    55 1   
    78    31    59 1   
    79    32    48 1   
    80    32    52 1   
    81    33    36 1   
    82    33    83 1   
    83    33    84 1   
    84    34    37 1   
    85    34    87 1   
    86    34    88 1   
    87    35    38 1   
    88    35    89 1   
    89    35    90 1   
    90    36    53 1   
    91    36    57 1   
    92    37    47 1   
    93    37    51 1   
    94    38    56 1   
    95    38    60 1   
    96    39    91 1   
    97    40    92 1   
    98    41    93 1   
    99    42    94 1   
   100    54   100 1   
   101    58   100 1   
   102    85    99 1   
   103    86    99 1   
   104    99   100 1   
@<TRIPOS>SUBSTRUCTURE
     1 SHN         1 TEMP              0 ****  ****    0 ROOT
