@<TRIPOS>MOLECULE
SHN
  100   104     1     0     0
SMALL
abcg2


@<TRIPOS>ATOM
      1 C2A         -3.1890     3.3560    -0.2990 c5         1 SHN      -0.006800
      2 C2B         -3.3160    -2.8440    -0.4600 c5         1 SHN      -0.004800
      3 CMA         -3.4910     4.6640     0.4220 c3         1 SHN      -0.056100
      4 CMB         -3.6340    -3.2540     0.9890 c3         1 SHN      -0.085100
      5 NB          -1.4260    -1.5180    -0.3640 nu         1 SHN      -0.635000
      6 ND           1.0090     1.8210     0.5910 na         1 SHN      -0.045000
      7 C1A         -1.8250     2.7830     0.0580 ce         1 SHN       0.099400
      8 C1B         -2.7680    -1.4360    -0.3840 c2         1 SHN       0.246800
      9 C1C          1.4480    -2.3800     0.0460 cc         1 SHN       0.499900
     10 C1D          2.3420     1.7460     0.9020 cc         1 SHN      -0.205800
     11 C2C          2.7770    -2.9220     0.2440 cc         1 SHN      -0.178800
     12 C2D          2.7840     3.0650     1.1500 cd         1 SHN      -0.102300
     13 C3A         -4.0870     2.1520     0.0680 c5         1 SHN      -0.143000
     14 C3B         -2.1020    -3.6350    -1.0040 c5         1 SHN      -0.044500
     15 C3C          3.5560    -1.8660     0.6160 cd         1 SHN      -0.128200
     16 C3D          1.6960     3.9110     0.9680 cc         1 SHN      -0.123300
     17 C4A         -3.0970     1.0170    -0.0510 cf         1 SHN       0.538600
     18 C4B         -0.9420    -2.7910    -0.5520 c2         1 SHN       0.120800
     19 C4C          2.6830    -0.7120     0.6240 cd         1 SHN       0.028600
     20 C4D          0.5910     3.1060     0.6160 cd         1 SHN      -0.071800
     21 CAA         -4.6940     2.2390     1.4780 c3         1 SHN      -0.037400
     22 CAB         -2.0600    -5.1220    -0.6650 c3         1 SHN      -0.037400
     23 CAC          5.0260    -1.8590     0.8820 c3         1 SHN       0.010800
     24 CAD          4.1910     3.4610     1.4490 c3         1 SHN       0.021900
     25 CBA         -5.5990     1.0790     1.8620 c3         1 SHN      -0.195400
     26 CBB         -1.3030    -5.9580    -1.6880 c3         1 SHN      -0.194400
     27 CBC          5.8360    -1.5790    -0.3830 c3         1 SHN      -0.194400
     28 CBD          4.9800     3.7290     0.1680 c3         1 SHN      -0.201400
     29 CCA         -6.3800     1.2670     3.1760 c          1 SHN       0.713000
     30 CCB         -1.3100    -7.4780    -1.4400 c          1 SHN       0.726000
     31 CCC          7.3630    -1.5230    -0.2060 c          1 SHN       0.722000
     32 CCD          6.4340     4.1900     0.3600 c          1 SHN       0.725000
     33 CDA         -3.1910     3.5840    -1.8230 c3         1 SHN      -0.194400
     34 CDC          3.1780    -4.3400     0.0520 c3         1 SHN      -0.147200
     35 CDD          1.6650     5.3900     1.1230 c3         1 SHN      -0.123100
     36 CEA         -4.4880     4.0920    -2.4890 c          1 SHN       0.720000
     37 CEC          2.7080    -5.3250     1.1520 c          1 SHN       0.725000
     38 CED          1.8320     6.2150    -0.1770 c          1 SHN       0.723000
     39 CHA         -0.7280     3.5430     0.3200 cf         1 SHN      -0.196200
     40 CHB         -3.5300    -0.3120    -0.2250 cf         1 SHN      -0.432600
     41 CHC          0.3360    -3.1830    -0.3580 ce         1 SHN      -0.323600
     42 CHD          3.0920     0.5690     0.9190 ce         1 SHN      -0.025200
     43 NA          -1.8440     1.4100     0.0330 ne         1 SHN      -0.667300
     44 NC           1.4020    -1.0720     0.2700 nd         1 SHN      -0.646300
     45 O1A         -6.9160     0.2400     3.6440 o          1 SHN      -0.790000
     46 O1B         -2.0100    -7.9130    -0.5060 o          1 SHN      -0.785500
     47 O1C          3.0540    -6.5130     0.9860 o          1 SHN      -0.761500
     48 O1D          6.8750     4.2710     1.5230 o          1 SHN      -0.793000
     49 O2A         -6.4400     2.4140     3.6650 o          1 SHN      -0.790000
     50 O2B         -0.6100    -8.1610    -2.2180 o          1 SHN      -0.785500
     51 O2C          2.0440    -4.8680     2.0980 o          1 SHN      -0.761500
     52 O2D          7.0650     4.4460    -0.6880 o          1 SHN      -0.793000
     53 O3A         -4.3510     4.4840    -3.6670 o          1 SHN      -0.781000
     54 O3B         -5.5450    -2.6160    -3.4280 o          1 SHN      -0.752000
     55 O3C          8.0240    -1.3470    -1.2520 o          1 SHN      -0.785500
     56 O3D          2.0350     5.6030    -1.2390 o          1 SHN      -0.761000
     57 O4A         -5.5560     4.0600    -1.8490 o          1 SHN      -0.781000
     58 O4B         -3.4740    -1.8570    -3.1220 o          1 SHN      -0.752000
     59 O4C          7.8240    -1.6460     0.9460 o          1 SHN      -0.785500
     60 O4D          1.7490     7.4530    -0.0310 o          1 SHN      -0.761000
     61 H1          -2.8430     5.4620     0.0520 hc         1 SHN       0.018033
     62 H2          -4.5180     4.9750     0.2430 hc         1 SHN       0.018033
     63 H3          -3.3330     4.5860     1.4970 hc         1 SHN       0.018033
     64 H4          -4.4180    -2.6170     1.4010 hc         1 SHN       0.025033
     65 H5          -3.9890    -4.2840     1.0310 hc         1 SHN       0.025033
     66 H6          -2.7590    -3.1760     1.6370 hc         1 SHN       0.025033
     67 H7          -3.8950     2.3480     2.2190 hc         1 SHN       0.031200
     68 H8          -5.2780     3.1600     1.5260 hc         1 SHN       0.031200
     69 H9          -1.6470    -5.2740     0.3360 hc         1 SHN       0.036700
     70 H10         -3.0880    -5.4910    -0.6220 hc         1 SHN       0.036700
     71 H11          5.2710    -1.1130     1.6420 hc         1 SHN       0.031200
     72 H12          5.3270    -2.8210     1.3040 hc         1 SHN       0.031200
     73 H13          4.1980     4.3560     2.0760 hc         1 SHN       0.018700
     74 H14          4.6900     2.6860     2.0350 hc         1 SHN       0.018700
     75 H15         -6.3320     0.9100     1.0630 hc         1 SHN       0.032700
     76 H16         -5.0350     0.1470     1.9320 hc         1 SHN       0.032700
     77 H17         -1.7310    -5.7780    -2.6820 hc         1 SHN       0.027200
     78 H18         -0.2620    -5.6330    -1.7760 hc         1 SHN       0.027200
     79 H19          5.6010    -2.3360    -1.1390 hc         1 SHN       0.029700
     80 H20          5.5080    -0.6290    -0.8210 hc         1 SHN       0.029700
     81 H21          4.9830     2.8210    -0.4470 hc         1 SHN       0.052700
     82 H22          4.4440     4.4720    -0.4310 hc         1 SHN       0.052700
     83 H23         -2.3890     4.2870    -2.0670 hc         1 SHN       0.045700
     84 H24         -2.9140     2.6490    -2.3280 hc         1 SHN       0.045700
     85 H25         -4.8180    -4.0600    -1.3630 hc         1 SHN       0.014200
     86 H26         -5.4160    -2.5340    -0.8040 hc         1 SHN       0.014200
     87 H27          2.8120    -4.7180    -0.9100 hc         1 SHN       0.021700
     88 H28          4.2680    -4.4100    -0.0190 hc         1 SHN       0.021700
     89 H29          0.7310     5.7030     1.6010 hc         1 SHN       0.004700
     90 H30          2.4520     5.7030     1.8170 hc         1 SHN       0.004700
     91 H31         -0.8590     4.6170     0.3100 ha         1 SHN       0.178000
     92 H32         -4.6010    -0.4600    -0.2720 ha         1 SHN       0.184000
     93 H33          0.5380    -4.2310    -0.5250 ha         1 SHN       0.203000
     94 H34          4.1350     0.6960     1.1870 ha         1 SHN       0.187000
     95 H45         -0.8190    -0.7320    -0.1630 hn         1 SHN       0.552000
     96 H46          0.4310     1.0210     0.3770 hn         1 SHN       0.392000
     97 H47         -4.9040     2.0420    -0.6470 hc         1 SHN       0.093700
     98 H48         -2.1420    -3.5320    -2.0950 hc         1 SHN       0.095700
     99 CDB         -4.5640    -2.9950    -1.3160 c3         1 SHN      -0.184400
    100 CEB         -4.5120    -2.4370    -2.7500 c          1 SHN       0.720000
@<TRIPOS>BOND
     1     1     3 1   
     2     1     7 1   
     3     1    13 1   
     4     1    33 1   
     5     2     4 1   
     6     2     8 1   
     7     2    14 1   
     8     2    99 1   
     9     3    61 1   
    10     3    62 1   
    11     3    63 1   
    12     4    64 1   
    13     4    65 1   
    14     4    66 1   
    15     5     8 1   
    16     5    18 1   
    17     5    95 1   
    18     6    10 1   
    19     6    20 1   
    20     6    96 1   
    21     7    39 2   
    22     7    43 1   
    23     8    40 2   
    24     9    11 1   
    25     9    41 1   
    26     9    44 2   
    27    10    12 2   
    28    10    42 1   
    29    11    15 2   
    30    11    34 1   
    31    12    16 1   
    32    12    24 1   
    33    13    17 1   
    34    13    21 1   
    35    13    97 1   
    36    14    18 1   
    37    14    22 1   
    38    14    98 1   
    39    15    19 1   
    40    15    23 1   
    41    16    20 2   
    42    16    35 1   
    43    17    40 1   
    44    17    43 2   
    45    18    41 2   
    46    19    42 2   
    47    19    44 1   
    48    20    39 1   
    49    21    25 1   
    50    21    67 1   
    51    21    68 1   
    52    22    26 1   
    53    22    69 1   
    54    22    70 1   
    55    23    27 1   
    56    23    71 1   
    57    23    72 1   
    58    24    28 1   
    59    24    73 1   
    60    24    74 1   
    61    25    29 1   
    62    25    75 1   
    63    25    76 1   
    64    26    30 1   
    65    26    77 1   
    66    26    78 1   
    67    27    31 1   
    68    27    79 1   
    69    27    80 1   
    70    28    32 1   
    71    28    81 1   
    72    28    82 1   
    73    29    45 1   
    74    29    49 1   
    75    30    46 1   
    76    30    50 1   
    77    31    55 1   
    78    31    59 1   
    79    32    48 1   
    80    32    52 1   
    81    33    36 1   
    82    33    83 1   
    83    33    84 1   
    84    34    37 1   
    85    34    87 1   
    86    34    88 1   
    87    35    38 1   
    88    35    89 1   
    89    35    90 1   
    90    36    53 1   
    91    36    57 1   
    92    37    47 1   
    93    37    51 1   
    94    38    56 1   
    95    38    60 1   
    96    39    91 1   
    97    40    92 1   
    98    41    93 1   
    99    42    94 1   
   100    54   100 1   
   101    58   100 1   
   102    85    99 1   
   103    86    99 1   
   104    99   100 1   
@<TRIPOS>SUBSTRUCTURE
     1 SHN         1 TEMP              0 ****  ****    0 ROOT
