@<TRIPOS>MOLECULE
SHO
   17    16     1     0     0
SMALL
No Charge or Current Charge


@<TRIPOS>ATOM
      1 CA          -0.7460     0.1490    -0.9590 c3         1 SHO      -0.204400
      2 CB           0.2090    -0.0500     0.2440 c3         1 SHO      -0.055400
      3 CG          -0.4940     0.1020     1.6120 c3         1 SHO      -0.086400
      4 CD           0.4630    -0.0980     2.8040 c3         1 SHO       0.156600
      5 C            0.0220    -0.0160    -2.2830 c          1 SHO       0.717000
      6 OXT          0.1090    -1.1350    -2.7640 o          1 SHO      -0.743500
      7 OE1         -0.2530     0.0560     4.0330 oh         1 SHO      -0.672000
      8 O            0.5540     0.9710    -2.7690 o          1 SHO      -0.743500
      9 HAC1        -1.5160    -0.6270    -0.8630 hc         1 SHO       0.016200
     10 HAC2        -1.1360     1.1710    -0.8670 hc         1 SHO       0.016200
     11 HBC1         1.0280     0.6780     0.1780 hc         1 SHO       0.037200
     12 HBC2         0.6640    -1.0470     0.1820 hc         1 SHO       0.037200
     13 HGC1        -1.3110    -0.6280     1.6800 hc         1 SHO       0.038200
     14 HGC2        -0.9460     1.0990     1.6760 hc         1 SHO       0.038200
     15 HDC1         1.2760     0.6380     2.7450 h1         1 SHO       0.012200
     16 HDC2         0.9090    -1.1000     2.7480 h1         1 SHO       0.012200
     17 HE1          0.3950    -0.0800     4.7590 ho         1 SHO       0.424000
@<TRIPOS>BOND
     1     1     2 1   
     2     1     5 1   
     3     1     9 1   
     4     1    10 1   
     5     2     3 1   
     6     2    11 1   
     7     2    12 1   
     8     3     4 1   
     9     3    13 1   
    10     3    14 1   
    11     4     7 1   
    12     4    15 1   
    13     4    16 1   
    14     5     6 1   
    15     5     8 1   
    16     7    17 1   
@<TRIPOS>SUBSTRUCTURE
     1 SHO         1 TEMP              0 ****  ****    0 ROOT
