@<TRIPOS>MOLECULE
SHO
   17    16     1     0     0
SMALL
abcg2


@<TRIPOS>ATOM
      1 CA          -0.6740    -0.0180    -0.9120 c3         1 SHO      -0.204400
      2 CB           0.2650    -0.0040     0.2830 c3         1 SHO      -0.055400
      3 CG          -0.4810     0.0170     1.6130 c3         1 SHO      -0.086400
      4 CD           0.4660     0.0250     2.7960 c3         1 SHO       0.156600
      5 C           -0.0030    -0.0260    -2.2970 c          1 SHO       0.717000
      6 OXT         -0.7720    -0.1410    -3.2760 o          1 SHO      -0.743500
      7 OE1         -0.2820     0.0520     3.9950 oh         1 SHO      -0.672000
      8 O            1.2370     0.0920    -2.3450 o          1 SHO      -0.743500
      9 HAC1        -1.3420    -0.8850    -0.8460 hc         1 SHO       0.016200
     10 HAC2        -1.3390     0.8530    -0.8640 hc         1 SHO       0.016200
     11 HBC1         0.9240     0.8670     0.2230 hc         1 SHO       0.037200
     12 HBC2         0.9200    -0.8790     0.2480 hc         1 SHO       0.037200
     13 HGC1        -1.1400    -0.8560     1.6810 hc         1 SHO       0.038200
     14 HGC2        -1.1270     0.9000     1.6590 hc         1 SHO       0.038200
     15 HDC1         1.1280     0.8980     2.7190 h1         1 SHO       0.012200
     16 HDC2         1.1100    -0.8630     2.7470 h1         1 SHO       0.012200
     17 HE1          0.3340     0.0520     4.7330 ho         1 SHO       0.424000
@<TRIPOS>BOND
     1     1     2 1   
     2     1     5 1   
     3     1     9 1   
     4     1    10 1   
     5     2     3 1   
     6     2    11 1   
     7     2    12 1   
     8     3     4 1   
     9     3    13 1   
    10     3    14 1   
    11     4     7 1   
    12     4    15 1   
    13     4    16 1   
    14     5     6 1   
    15     5     8 1   
    16     7    17 1   
@<TRIPOS>SUBSTRUCTURE
     1 SHO         1 TEMP              0 ****  ****    0 ROOT
