@<TRIPOS>MOLECULE
SHP
   62    64     1     0     0
SMALL
bcc


@<TRIPOS>ATOM
      1 N           21.5200    20.2210    17.2860 n8         1 SHP      -0.885800
      2 CA          21.6040    18.7780    17.3730 c3         1 SHP       0.044800
      3 C           22.3170    18.3490    18.6920 c          1 SHP       0.942600
      4 O           23.1550    19.1510    19.1470 o          1 SHP      -0.824300
      5 OXT         22.0140    17.2290    19.1380 o          1 SHP      -0.824300
      6 C1B         22.3420    18.0920    16.2400 ca         1 SHP      -0.047300
      7 C2B         22.0210    16.7840    15.8820 ca         1 SHP      -0.127500
      8 C3B         22.7070    16.1210    14.8750 ca         1 SHP      -0.137500
      9 C4B         23.7310    16.7710    14.2010 ca         1 SHP       0.054100
     10 O4B         24.3710    16.1380    13.1640 os         1 SHP      -0.335900
     11 C5B         24.0640    18.0750    14.5360 ca         1 SHP      -0.137500
     12 C6B         23.3750    18.7230    15.5530 ca         1 SHP      -0.127500
     13 C1          25.6410    15.6330    13.4330 c6         1 SHP       0.328900
     14 C2          26.3550    15.3960    12.1040 c6         1 SHP       0.146100
     15 C3          27.6740    14.6700    12.3380 c6         1 SHP       0.151100
     16 C4          27.4360    13.3940    13.1540 c6         1 SHP       0.086100
     17 C5          26.5990    13.6570    14.4110 c6         1 SHP       0.136100
     18 C6          27.3600    14.2520    15.5960 c3         1 SHP       0.100400
     19 O1          26.6350    16.6050    11.4450 os         1 SHP      -0.432600
     20 O3          28.5430    15.5580    12.9960 oh         1 SHP      -0.574800
     21 O4          26.7750    12.5010    12.2840 oh         1 SHP      -0.596800
     22 O5          25.4450    14.4180    14.1070 os         1 SHP      -0.419600
     23 O6          28.3290    13.3080    15.9930 oh         1 SHP      -0.619800
     24 C7          25.6650    17.1150    10.5680 c6         1 SHP       0.351900
     25 C8          26.1810    17.0030     9.1340 c6         1 SHP       0.107100
     26 C9          27.3350    17.9720     8.9140 c6         1 SHP       0.111100
     27 C10         26.9280    19.3810     9.3240 c6         1 SHP       0.079100
     28 C11         26.4250    19.3610    10.7720 c6         1 SHP       0.121100
     29 C12         25.8960    20.7100    11.2100 c3         1 SHP       0.150400
     30 O2          25.0920    17.2900     8.2900 oh         1 SHP      -0.590800
     31 O7          27.6980    17.9010     7.5560 oh         1 SHP      -0.615800
     32 O8          28.0690    20.2000     9.1770 oh         1 SHP      -0.606800
     33 O9          25.3620    18.4270    10.9060 os         1 SHP      -0.365600
     34 O10         25.6300    20.6730    12.5930 oh         1 SHP      -0.573800
     35 H           21.3560    20.5190    16.3330 hn         1 SHP       0.330800
     36 H2          22.4020    20.6190    17.5840 hn         1 SHP       0.330800
     37 HA          20.5890    18.3680    17.3970 h1         1 SHP       0.056700
     38 H2B         21.2160    16.2730    16.3960 ha         1 SHP       0.133000
     39 H3B         22.4380    15.1080    14.6010 ha         1 SHP       0.135000
     40 H5B         24.8410    18.5960    13.9890 ha         1 SHP       0.135000
     41 H6          23.6400    19.7450    15.7920 ha         1 SHP       0.133000
     42 H1          26.2090    16.3470    14.0500 h2         1 SHP       0.062700
     43 HC2         25.7200    14.7450    11.4880 h1         1 SHP       0.072700
     44 H3          28.0830    14.3760    11.3610 h1         1 SHP       0.048700
     45 H4          28.4090    12.9870    13.4600 h1         1 SHP       0.047700
     46 H5          26.2100    12.6910    14.7530 h1         1 SHP       0.075700
     47 H61         27.8160    15.2120    15.3410 h1         1 SHP       0.052700
     48 H62         26.6300    14.4400    16.3940 h1         1 SHP       0.052700
     49 HO3         29.3950    15.1250    13.1100 ho         1 SHP       0.398000
     50 HO4         26.6670    11.6560    12.7310 ho         1 SHP       0.410000
     51 HO6         28.8700    13.7030    16.6810 ho         1 SHP       0.409000
     52 H8          24.7270    16.5580    10.6500 h2         1 SHP       0.109700
     53 H7          26.5380    15.9740     8.9770 h1         1 SHP       0.053700
     54 H9          28.1720    17.6600     9.5580 h1         1 SHP       0.070700
     55 H10         26.1130    19.7210     8.6710 h1         1 SHP       0.054700
     56 H11         27.2650    19.0880    11.4270 h1         1 SHP       0.082700
     57 H6'1        26.6480    21.4730    10.9740 h1         1 SHP       0.016700
     58 H6'2        24.9980    20.9500    10.6250 h1         1 SHP       0.016700
     59 HO2         25.4240    17.3490     7.3880 ho         1 SHP       0.416000
     60 H12         28.3250    18.6110     7.3760 ho         1 SHP       0.420000
     61 H13         27.7930    21.0890     8.9370 ho         1 SHP       0.406000
     62 H14         25.2520    21.5180    12.8520 ho         1 SHP       0.404000
@<TRIPOS>BOND
     1     1     2 1   
     2     1    35 1   
     3     1    36 1   
     4     2     3 1   
     5     2     6 1   
     6     2    37 1   
     7     3     4 1   
     8     3     5 1   
     9     6     7 ar  
    10     6    12 ar  
    11     7     8 ar  
    12     7    38 1   
    13     8     9 ar  
    14     8    39 1   
    15     9    10 1   
    16     9    11 ar  
    17    10    13 1   
    18    11    12 ar  
    19    11    40 1   
    20    12    41 1   
    21    13    14 1   
    22    13    22 1   
    23    13    42 1   
    24    14    15 1   
    25    14    19 1   
    26    14    43 1   
    27    15    16 1   
    28    15    20 1   
    29    15    44 1   
    30    16    17 1   
    31    16    21 1   
    32    16    45 1   
    33    17    18 1   
    34    17    22 1   
    35    17    46 1   
    36    18    23 1   
    37    18    47 1   
    38    18    48 1   
    39    19    24 1   
    40    20    49 1   
    41    21    50 1   
    42    23    51 1   
    43    24    25 1   
    44    24    33 1   
    45    24    52 1   
    46    25    26 1   
    47    25    30 1   
    48    25    53 1   
    49    26    27 1   
    50    26    31 1   
    51    26    54 1   
    52    27    28 1   
    53    27    32 1   
    54    27    55 1   
    55    28    29 1   
    56    28    33 1   
    57    28    56 1   
    58    29    34 1   
    59    29    57 1   
    60    29    58 1   
    61    30    59 1   
    62    31    60 1   
    63    32    61 1   
    64    34    62 1   
@<TRIPOS>SUBSTRUCTURE
     1 SHP         1 TEMP              0 ****  ****    0 ROOT
