@<TRIPOS>MOLECULE
SHP
   62    64     1     0     0
SMALL
No Charge or Current Charge


@<TRIPOS>ATOM
      1 N           21.9570    20.3750    17.1730 n8         1 SHP      -0.885800
      2 CA          21.4220    18.9660    17.0290 c3         1 SHP       0.044800
      3 C           21.2010    18.1100    18.3530 c          1 SHP       0.942600
      4 O           22.0570    18.1390    19.2370 o          1 SHP      -0.824300
      5 OXT         20.1620    17.4650    18.4700 o          1 SHP      -0.824300
      6 C1B         22.2670    18.1880    16.0160 ca         1 SHP      -0.047300
      7 C2B         21.6970    17.7560    14.8020 ca         1 SHP      -0.127500
      8 C3B         22.4670    17.0390    13.8690 ca         1 SHP      -0.137500
      9 C4B         23.8140    16.7430    14.1310 ca         1 SHP       0.054100
     10 O4B         24.5120    16.0380    13.1680 os         1 SHP      -0.335900
     11 C5B         24.3940    17.1800    15.3440 ca         1 SHP      -0.137500
     12 C6B         23.6220    17.8960    16.2770 ca         1 SHP      -0.127500
     13 C1          25.8820    15.6310    13.3670 c6         1 SHP       0.328900
     14 C2          26.4890    15.0780    12.0240 c6         1 SHP       0.146100
     15 C3          27.8740    14.3960    12.2920 c6         1 SHP       0.151100
     16 C4          27.7850    13.3650    13.4610 c6         1 SHP       0.086100
     17 C5          27.1420    14.0150    14.7310 c6         1 SHP       0.136100
     18 C6          28.0110    15.0700    15.4980 c3         1 SHP       0.100400
     19 O1          26.6780    16.0960    10.9950 os         1 SHP      -0.432600
     20 O3          28.9010    15.3780    12.5350 oh         1 SHP      -0.574800
     21 O4          26.9880    12.2420    13.0320 oh         1 SHP      -0.596800
     22 O5          25.8620    14.5920    14.3820 os         1 SHP      -0.419600
     23 O6          29.2650    14.5240    15.9410 oh         1 SHP      -0.619800
     24 C7          25.4980    16.7400    10.4660 c6         1 SHP       0.351900
     25 C8          25.6250    16.9530     8.9220 c6         1 SHP       0.107100
     26 C9          26.7780    17.9600     8.6330 c6         1 SHP       0.111100
     27 C10         26.5820    19.2840     9.4340 c6         1 SHP       0.079100
     28 C11         26.4070    18.9540    10.9500 c6         1 SHP       0.121100
     29 C12         26.1010    20.2160    11.8170 c3         1 SHP       0.150400
     30 O2          24.4010    17.4530     8.3470 oh         1 SHP      -0.590800
     31 O7          26.8610    18.2430     7.2250 oh         1 SHP      -0.615800
     32 O8          27.7020    20.1610     9.2030 oh         1 SHP      -0.606800
     33 O9          25.3180    18.0120    11.1330 os         1 SHP      -0.365600
     34 O10         25.9220    19.9070    13.2070 oh         1 SHP      -0.573800
     35 H           22.1050    20.7730    16.2410 hn         1 SHP       0.330800
     36 H2          22.8940    20.3290    17.5860 hn         1 SHP       0.330800
     37 HA          20.4180    19.0760    16.5980 h1         1 SHP       0.056700
     38 H2B         20.6540    17.9740    14.5790 ha         1 SHP       0.133000
     39 H3B         22.0170    16.7110    12.9350 ha         1 SHP       0.135000
     40 H5B         25.4330    16.9750    15.5800 ha         1 SHP       0.135000
     41 H6          24.0800    18.2240    17.2070 ha         1 SHP       0.133000
     42 H1          26.4810    16.4910    13.6990 h2         1 SHP       0.062700
     43 HC2         25.8050    14.3120    11.6310 h1         1 SHP       0.072700
     44 H3          28.1400    13.8390    11.3810 h1         1 SHP       0.048700
     45 H4          28.7990    13.0170    13.7090 h1         1 SHP       0.047700
     46 H5          26.9460    13.2100    15.4540 h1         1 SHP       0.075700
     47 H61         28.1850    15.9490    14.8660 h1         1 SHP       0.052700
     48 H62         27.4290    15.4130    16.3640 h1         1 SHP       0.052700
     49 HO3         29.7620    14.9150    12.4700 ho         1 SHP       0.398000
     50 HO4         26.9900    11.5850    13.7610 ho         1 SHP       0.410000
     51 HO6         29.7420    15.2370    16.4200 ho         1 SHP       0.409000
     52 H8          24.6160    16.1050    10.6420 h2         1 SHP       0.109700
     53 H7          25.8820    15.9870     8.4620 h1         1 SHP       0.053700
     54 H9          27.7190    17.4990     8.9710 h1         1 SHP       0.070700
     55 H10         25.6570    19.7670     9.0840 h1         1 SHP       0.054700
     56 H11         27.3360    18.5060    11.3320 h1         1 SHP       0.082700
     57 H6'1        26.9270    20.9290    11.7030 h1         1 SHP       0.016700
     58 H6'2        25.1960    20.6960    11.4210 h1         1 SHP       0.016700
     59 HO2         24.6700    17.8590     7.4930 ho         1 SHP       0.416000
     60 H12         27.4630    19.0170     7.1500 ho         1 SHP       0.420000
     61 H13         27.4180    21.0710     9.4360 ho         1 SHP       0.406000
     62 H14         25.6320    20.7320    13.6500 ho         1 SHP       0.404000
@<TRIPOS>BOND
     1     1     2 1   
     2     1    35 1   
     3     1    36 1   
     4     2     3 1   
     5     2     6 1   
     6     2    37 1   
     7     3     4 1   
     8     3     5 1   
     9     6     7 ar  
    10     6    12 ar  
    11     7     8 ar  
    12     7    38 1   
    13     8     9 ar  
    14     8    39 1   
    15     9    10 1   
    16     9    11 ar  
    17    10    13 1   
    18    11    12 ar  
    19    11    40 1   
    20    12    41 1   
    21    13    14 1   
    22    13    22 1   
    23    13    42 1   
    24    14    15 1   
    25    14    19 1   
    26    14    43 1   
    27    15    16 1   
    28    15    20 1   
    29    15    44 1   
    30    16    17 1   
    31    16    21 1   
    32    16    45 1   
    33    17    18 1   
    34    17    22 1   
    35    17    46 1   
    36    18    23 1   
    37    18    47 1   
    38    18    48 1   
    39    19    24 1   
    40    20    49 1   
    41    21    50 1   
    42    23    51 1   
    43    24    25 1   
    44    24    33 1   
    45    24    52 1   
    46    25    26 1   
    47    25    30 1   
    48    25    53 1   
    49    26    27 1   
    50    26    31 1   
    51    26    54 1   
    52    27    28 1   
    53    27    32 1   
    54    27    55 1   
    55    28    29 1   
    56    28    33 1   
    57    28    56 1   
    58    29    34 1   
    59    29    57 1   
    60    29    58 1   
    61    30    59 1   
    62    31    60 1   
    63    32    61 1   
    64    34    62 1   
@<TRIPOS>SUBSTRUCTURE
     1 SHP         1 TEMP              0 ****  ****    0 ROOT
