@<TRIPOS>MOLECULE
SHR
   36    35     1     0     0
SMALL
bcc


@<TRIPOS>ATOM
      1 N1           0.2170     1.7060     5.1590 n8         1 SHR      -0.891800
      2 C10         -0.1390     0.3120     4.9420 c3         1 SHR       0.023500
      3 C9           0.2960    -0.2550     3.5810 c3         1 SHR      -0.098400
      4 C8          -0.3630     0.4230     2.3860 c3         1 SHR      -0.077400
      5 C7           0.0500    -0.1900     1.0540 c3         1 SHR      -0.080400
      6 C6          -0.6210     0.4740    -0.1380 c3         1 SHR       0.166800
      7 N           -0.2420    -0.1670    -1.3810 n7         1 SHR      -0.773200
      8 C11          0.4580    -0.5760     6.0550 c          1 SHR       0.934600
      9 O5          -0.1250    -1.6580     6.2700 o          1 SHR      -0.854300
     10 O6           1.4960    -0.1680     6.6140 o          1 SHR      -0.854300
     11 C4          -0.7490     0.5030    -2.5640 c3         1 SHR       0.036500
     12 C3          -0.1660    -0.1320    -3.8310 c3         1 SHR      -0.046400
     13 C2           1.3500    -0.0520    -3.9430 c3         1 SHR      -0.201400
     14 C1           1.9450    -0.5630    -5.2700 c          1 SHR       0.923600
     15 O1           3.1780    -0.7640    -5.2740 o          1 SHR      -0.874300
     16 O2           1.1720    -0.7190    -6.2370 o          1 SHR      -0.874300
     17 C5          -2.2890     0.4400    -2.6690 c          1 SHR       0.931600
     18 O3          -2.8690    -0.5470    -2.1770 o          1 SHR      -0.858300
     19 O4          -2.8280     1.3790    -3.2940 o          1 SHR      -0.858300
     20 H12          1.2180     1.7580     5.3030 hn         1 SHR       0.320800
     21 H11          0.0110     2.2570     4.3350 hn         1 SHR       0.320800
     22 H10         -1.2310     0.2290     4.9950 h1         1 SHR       0.041700
     23 H92          1.3860    -0.1750     3.4930 hc         1 SHR       0.038700
     24 H91          0.0600    -1.3230     3.5500 hc         1 SHR       0.038700
     25 H82         -1.4520     0.3580     2.4920 hc         1 SHR       0.021700
     26 H81         -0.1220     1.4920     2.3740 hc         1 SHR       0.021700
     27 H72          1.1390    -0.1210     0.9470 hc         1 SHR       0.031700
     28 H71         -0.1900    -1.2580     1.0500 hc         1 SHR       0.031700
     29 H62         -1.7050     0.4000    -0.0240 h1         1 SHR       0.019700
     30 H61         -0.3850     1.5530    -0.1300 h1         1 SHR       0.019700
     31 H            0.7700    -0.1690    -1.4280 hn         1 SHR       0.317800
     32 H4          -0.4670     1.5720    -2.5670 h1         1 SHR      -0.010300
     33 H32         -0.4850    -1.1790    -3.8760 hc         1 SHR       0.047700
     34 H31         -0.6120     0.3630    -4.6950 hc         1 SHR       0.047700
     35 H22          1.6700     0.9910    -3.8160 hc         1 SHR       0.006700
     36 H21          1.8360    -0.6020    -3.1320 hc         1 SHR       0.006700
@<TRIPOS>BOND
     1     1     2 1   
     2     1    20 1   
     3     1    21 1   
     4     2     3 1   
     5     2     8 1   
     6     2    22 1   
     7     3     4 1   
     8     3    23 1   
     9     3    24 1   
    10     4     5 1   
    11     4    25 1   
    12     4    26 1   
    13     5     6 1   
    14     5    27 1   
    15     5    28 1   
    16     6     7 1   
    17     6    29 1   
    18     6    30 1   
    19     7    11 1   
    20     7    31 1   
    21     8     9 1   
    22     8    10 1   
    23    11    12 1   
    24    11    17 1   
    25    11    32 1   
    26    12    13 1   
    27    12    33 1   
    28    12    34 1   
    29    13    14 1   
    30    13    35 1   
    31    13    36 1   
    32    14    15 1   
    33    14    16 1   
    34    17    18 1   
    35    17    19 1   
@<TRIPOS>SUBSTRUCTURE
     1 SHR         1 TEMP              0 ****  ****    0 ROOT
