@<TRIPOS>MOLECULE
SHR
   36    35     1     0     0
SMALL
No Charge or Current Charge


@<TRIPOS>ATOM
      1 N1           0.2820     1.8010     5.1310 n8         1 SHR      -1.002200
      2 C10         -0.0780     0.3410     5.0240 c3         1 SHR       0.023500
      3 C9           0.3590    -0.2170     3.6420 c3         1 SHR      -0.098400
      4 C8          -0.3580     0.4290     2.4290 c3         1 SHR      -0.077400
      5 C7           0.0510    -0.2020     1.0790 c3         1 SHR      -0.080400
      6 C6          -0.6650     0.4430    -0.1260 c3         1 SHR       0.166800
      7 N           -0.2300    -0.1950    -1.3820 n7         1 SHR      -0.828400
      8 C11          0.4280    -0.6030     6.1990 c          1 SHR       0.724000
      9 O5          -0.4080    -1.1910     6.8750 o          1 SHR      -0.749000
     10 O6           1.6300    -0.6550     6.4370 o          1 SHR      -0.749000
     11 C4          -0.8160     0.3840    -2.6390 c3         1 SHR       0.036500
     12 C3          -0.1000    -0.2280    -3.8760 c3         1 SHR      -0.046400
     13 C2           1.4110     0.1200    -3.9840 c3         1 SHR      -0.201400
     14 C1           1.9870    -0.4370    -5.3000 c          1 SHR       0.713000
     15 O1           2.4360    -1.5730    -5.3020 o          1 SHR      -0.769000
     16 O2           1.9280     0.2630    -6.2990 o          1 SHR      -0.769000
     17 C5          -2.3960     0.2670    -2.7640 c          1 SHR       0.721000
     18 O3          -2.8940    -0.7940    -3.1270 o          1 SHR      -0.753000
     19 O4          -3.0730     1.2600    -2.5220 o          1 SHR      -0.753000
     20 H12          1.3040     1.8800     5.1910 hn         1 SHR       0.376000
     21 H11          0.0500     2.2630     4.2450 hn         1 SHR       0.376000
     22 H10         -1.1750     0.2880     5.0510 h1         1 SHR       0.041700
     23 H92          1.4450    -0.1080     3.5280 hc         1 SHR       0.038700
     24 H91          0.1530    -1.2950     3.6270 hc         1 SHR       0.038700
     25 H82         -1.4430     0.3280     2.5570 hc         1 SHR       0.021700
     26 H81         -0.1370     1.5030     2.3970 hc         1 SHR       0.021700
     27 H72          1.1360    -0.1030     0.9510 hc         1 SHR       0.031700
     28 H71         -0.1750    -1.2750     1.1010 hc         1 SHR       0.031700
     29 H62         -1.7500     0.3350     0.0020 h1         1 SHR       0.019700
     30 H61         -0.4320     1.5170    -0.1460 h1         1 SHR       0.019700
     31 H            0.7890    -0.0980    -1.4450 hn         1 SHR       0.373000
     32 H4          -0.5870     1.4590    -2.6520 h1         1 SHR      -0.010300
     33 H32         -0.2250    -1.3180    -3.8720 hc         1 SHR       0.047700
     34 H31         -0.6040     0.1390    -4.7790 hc         1 SHR       0.047700
     35 H22          1.4670     1.2160    -3.9750 hc         1 SHR       0.006700
     36 H21          1.9000    -0.3530    -3.1230 hc         1 SHR       0.006700
@<TRIPOS>BOND
     1     1     2 1   
     2     1    20 1   
     3     1    21 1   
     4     2     3 1   
     5     2     8 1   
     6     2    22 1   
     7     3     4 1   
     8     3    23 1   
     9     3    24 1   
    10     4     5 1   
    11     4    25 1   
    12     4    26 1   
    13     5     6 1   
    14     5    27 1   
    15     5    28 1   
    16     6     7 1   
    17     6    29 1   
    18     6    30 1   
    19     7    11 1   
    20     7    31 1   
    21     8     9 1   
    22     8    10 1   
    23    11    12 1   
    24    11    17 1   
    25    11    32 1   
    26    12    13 1   
    27    12    33 1   
    28    12    34 1   
    29    13    14 1   
    30    13    35 1   
    31    13    36 1   
    32    14    15 1   
    33    14    16 1   
    34    17    18 1   
    35    17    19 1   
@<TRIPOS>SUBSTRUCTURE
     1 SHR         1 TEMP              0 ****  ****    0 ROOT
