@<TRIPOS>MOLECULE
SHU
   20    19     1     0     0
SMALL
No Charge or Current Charge


@<TRIPOS>ATOM
      1 C4          -0.4970     1.0420     0.7420 c          1 SHU       0.585100
      2 C5          -1.4130     0.3850     1.7630 c3         1 SHU      -0.305400
      3 C6          -0.5800    -0.6150     2.5420 c          1 SHU       0.578100
      4 O6          -0.3500    -1.7330     2.1060 o          1 SHU      -0.501100
      5 C7          -0.0520    -0.1640     3.9040 c3         1 SHU      -0.201100
      6 C3          -0.6300     0.6110    -0.7290 c3         1 SHU      -0.142400
      7 C2           0.4720    -0.4030    -1.1520 c3         1 SHU      -0.201400
      8 C1           0.3410    -0.7540    -2.6440 c          1 SHU       0.718000
      9 O1          -0.3890    -1.6820    -2.9550 o          1 SHU      -0.742500
     10 OH1          0.9240    -0.0490    -3.4540 o          1 SHU      -0.742500
     11 O4L          0.2980     1.9080     1.0820 o          1 SHU      -0.537100
     12 HC51        -2.2200    -0.1550     1.2560 hc         1 SHU       0.069700
     13 HC52        -1.7710     1.1660     2.4440 hc         1 SHU       0.069700
     14 HC1          0.5620    -0.9280     4.3940 hc         1 SHU       0.053700
     15 HC2          0.4900     0.7810     3.7860 hc         1 SHU       0.053700
     16 HC3         -0.9000     0.1320     4.5320 hc         1 SHU       0.053700
     17 HC31        -1.6020     0.1290    -0.8920 hc         1 SHU       0.062700
     18 HC32        -0.5450     1.5010    -1.3640 hc         1 SHU       0.062700
     19 HC21         1.4310     0.0960    -0.9630 hc         1 SHU       0.032200
     20 HC22         0.3140    -1.2980    -0.5380 hc         1 SHU       0.032200
@<TRIPOS>BOND
     1     1     2 1   
     2     1     6 1   
     3     1    11 2   
     4     2     3 1   
     5     2    12 1   
     6     2    13 1   
     7     3     4 2   
     8     3     5 1   
     9     5    14 1   
    10     5    15 1   
    11     5    16 1   
    12     6     7 1   
    13     6    17 1   
    14     6    18 1   
    15     7     8 1   
    16     7    19 1   
    17     7    20 1   
    18     8     9 1   
    19     8    10 1   
@<TRIPOS>SUBSTRUCTURE
     1 SHU         1 TEMP              0 ****  ****    0 ROOT
