@<TRIPOS>MOLECULE
SHU
   20    19     1     0     0
SMALL
abcg2


@<TRIPOS>ATOM
      1 C4           0.0910     0.8920     0.6410 c          1 SHU       0.585100
      2 C5          -0.6960     0.7890     1.9300 c3         1 SHU      -0.305400
      3 C6          -0.1910    -0.3500     2.7910 c          1 SHU       0.578100
      4 O6           0.6640    -1.1080     2.3950 o          1 SHU      -0.501100
      5 C7          -0.8090    -0.4570     4.1530 c3         1 SHU      -0.201100
      6 C3          -0.4670     0.1270    -0.5220 c3         1 SHU      -0.142400
      7 C2           0.4350     0.0380    -1.7360 c3         1 SHU      -0.201400
      8 C1          -0.1570    -0.7450    -2.9220 c          1 SHU       0.718000
      9 O1          -1.2710    -1.2830    -2.7700 o          1 SHU      -0.742500
     10 OH1          0.5470    -0.7780    -3.9530 o          1 SHU      -0.742500
     11 O4L          1.1030     1.5540     0.5880 o          1 SHU      -0.537100
     12 HC51        -1.7600     0.6170     1.7390 hc         1 SHU       0.069700
     13 HC52        -0.6290     1.7190     2.5020 hc         1 SHU       0.069700
     14 HC1         -0.5430    -1.3940     4.6370 hc         1 SHU       0.053700
     15 HC2         -0.4540     0.3710     4.7710 hc         1 SHU       0.053700
     16 HC3         -1.8940    -0.3640     4.0990 hc         1 SHU       0.053700
     17 HC31        -0.7530    -0.8670    -0.1660 hc         1 SHU       0.062700
     18 HC32        -1.4210     0.6050    -0.7750 hc         1 SHU       0.062700
     19 HC21         0.7040     1.0390    -2.0840 hc         1 SHU       0.032200
     20 HC22         1.3840    -0.4330    -1.4590 hc         1 SHU       0.032200
@<TRIPOS>BOND
     1     1     2 1   
     2     1     6 1   
     3     1    11 2   
     4     2     3 1   
     5     2    12 1   
     6     2    13 1   
     7     3     4 2   
     8     3     5 1   
     9     5    14 1   
    10     5    15 1   
    11     5    16 1   
    12     6     7 1   
    13     6    17 1   
    14     6    18 1   
    15     7     8 1   
    16     7    19 1   
    17     7    20 1   
    18     8     9 1   
    19     8    10 1   
@<TRIPOS>SUBSTRUCTURE
     1 SHU         1 TEMP              0 ****  ****    0 ROOT
