@<TRIPOS>MOLECULE
SHV
   22    21     1     0     0
SMALL
No Charge or Current Charge


@<TRIPOS>ATOM
      1 C1          -2.8410     0.1000    -0.0010 c          1 SHV       0.717000
      2 O1          -3.3200     0.2410     1.1140 o          1 SHV      -0.744000
      3 O2          -3.3000     0.6260    -1.0040 o          1 SHV      -0.744000
      4 C2          -1.5570    -0.7370    -0.1420 c3         1 SHV      -0.204400
      5 C3          -0.3100     0.1640     0.0340 c3         1 SHV      -0.053400
      6 C4           1.0220    -0.6090    -0.0930 c3         1 SHV      -0.079400
      7 C5           2.2640     0.2920     0.0830 c3         1 SHV      -0.076400
      8 C6           3.5950    -0.4810    -0.0450 c3         1 SHV      -0.076400
      9 C7           4.8340     0.4180     0.1300 c3         1 SHV      -0.086100
     10 H21         -1.4990    -1.4880     0.6560 hc         1 SHV       0.013700
     11 H22         -1.4820    -1.1590    -1.1520 hc         1 SHV       0.013700
     12 H31         -0.3350     0.9640    -0.7160 hc         1 SHV       0.037700
     13 H32         -0.3510     0.6480     1.0180 hc         1 SHV       0.037700
     14 H41          1.0490    -1.4080     0.6580 hc         1 SHV       0.022700
     15 H42          1.0650    -1.0920    -1.0780 hc         1 SHV       0.022700
     16 H51          2.2390     1.0910    -0.6690 hc         1 SHV       0.033700
     17 H52          2.2220     0.7760     1.0670 hc         1 SHV       0.033700
     18 H61          3.6260    -1.2800     0.7060 hc         1 SHV       0.030700
     19 H62          3.6420    -0.9640    -1.0290 hc         1 SHV       0.030700
     20 H71          5.7520    -0.1740     0.0310 hc         1 SHV       0.023367
     21 H72          4.8520     1.2080    -0.6300 hc         1 SHV       0.023367
     22 H73          4.8350     0.8890     1.1210 hc         1 SHV       0.023367
@<TRIPOS>BOND
     1     1     2 1   
     2     1     3 1   
     3     1     4 1   
     4     4     5 1   
     5     4    10 1   
     6     4    11 1   
     7     5     6 1   
     8     5    12 1   
     9     5    13 1   
    10     6     7 1   
    11     6    14 1   
    12     6    15 1   
    13     7     8 1   
    14     7    16 1   
    15     7    17 1   
    16     8     9 1   
    17     8    18 1   
    18     8    19 1   
    19     9    20 1   
    20     9    21 1   
    21     9    22 1   
@<TRIPOS>SUBSTRUCTURE
     1 SHV         1 TEMP              0 ****  ****    0 ROOT
