@<TRIPOS>MOLECULE
SHV
   22    21     1     0     0
SMALL
abcg2


@<TRIPOS>ATOM
      1 C1          -2.8630     0.0600    -0.0030 c          1 SHV       0.717000
      2 O1          -3.8730    -0.6760     0.0100 o          1 SHV      -0.744000
      3 O2          -2.8620     1.3060    -0.0230 o          1 SHV      -0.744000
      4 C2          -1.5040    -0.6630     0.0060 c3         1 SHV      -0.204400
      5 C3          -0.2690     0.2230     0.0020 c3         1 SHV      -0.053400
      6 C4           1.0300    -0.5750     0.0090 c3         1 SHV      -0.079400
      7 C5           2.2760     0.3010     0.0070 c3         1 SHV      -0.076400
      8 C6           3.5760    -0.4930    -0.0010 c3         1 SHV      -0.076400
      9 C7           4.8110     0.3970    -0.0000 c3         1 SHV      -0.086100
     10 H21         -1.4770    -1.3270     0.8790 hc         1 SHV       0.013700
     11 H22         -1.4730    -1.3390    -0.8580 hc         1 SHV       0.013700
     12 H31         -0.2850     0.8770    -0.8750 hc         1 SHV       0.037700
     13 H32         -0.2860     0.8880     0.8710 hc         1 SHV       0.037700
     14 H41          1.0510    -1.2320     0.8870 hc         1 SHV       0.022700
     15 H42          1.0550    -1.2400    -0.8630 hc         1 SHV       0.022700
     16 H51          2.2520     0.9640    -0.8660 hc         1 SHV       0.033700
     17 H52          2.2590     0.9590     0.8840 hc         1 SHV       0.033700
     18 H61          3.6000    -1.1560     0.8710 hc         1 SHV       0.030700
     19 H62          3.5950    -1.1470    -0.8780 hc         1 SHV       0.030700
     20 H71          5.7320    -0.1870    -0.0040 hc         1 SHV       0.023367
     21 H72          4.8280     1.0450    -0.8790 hc         1 SHV       0.023367
     22 H73          4.8310     1.0400     0.8820 hc         1 SHV       0.023367
@<TRIPOS>BOND
     1     1     2 1   
     2     1     3 1   
     3     1     4 1   
     4     4     5 1   
     5     4    10 1   
     6     4    11 1   
     7     5     6 1   
     8     5    12 1   
     9     5    13 1   
    10     6     7 1   
    11     6    14 1   
    12     6    15 1   
    13     7     8 1   
    14     7    16 1   
    15     7    17 1   
    16     8     9 1   
    17     8    18 1   
    18     8    19 1   
    19     9    20 1   
    20     9    21 1   
    21     9    22 1   
@<TRIPOS>SUBSTRUCTURE
     1 SHV         1 TEMP              0 ****  ****    0 ROOT
