@<TRIPOS>MOLECULE
SHX
   44    46     1     0     0
SMALL
No Charge or Current Charge


@<TRIPOS>ATOM
      1 Cl           1.4100     2.9780    -0.1210 cl         1 SHX      -0.186000
      2 C8          -0.0010     1.9120     0.0050 ca         1 SHX      -0.072000
      3 C7          -1.2090     2.3480     0.5830 ca         1 SHX       0.179300
      4 C19         -1.3870     3.7570     1.1280 c3         1 SHX      -0.151400
      5 N2          -2.2730     1.5230     0.6780 nb         1 SHX      -0.232000
      6 C6          -2.1500     0.2610     0.2060 cp         1 SHX       0.137000
      7 C5          -3.3620    -0.6500     0.2790 cp         1 SHX       0.293000
      8 C4          -4.5810    -0.2340     0.8850 ca         1 SHX      -0.112000
      9 C3          -5.6810    -1.1060     0.9290 ca         1 SHX      -0.086000
     10 C2          -5.5380    -2.3820     0.3620 ca         1 SHX      -0.150000
     11 C1          -4.3120    -2.7330    -0.2220 ca         1 SHX       0.323900
     12 N1          -3.2520    -1.8940    -0.2650 nb         1 SHX      -0.642000
     13 N3          -1.0200    -0.2300    -0.3520 nb         1 SHX      -0.240000
     14 C9           0.0410     0.5850    -0.4610 ca         1 SHX       0.407900
     15 N4           1.1980     0.0580    -1.0360 nu         1 SHX      -0.904100
     16 C10          1.5650    -1.3880    -1.1700 c3         1 SHX       0.171500
     17 C11          1.0360    -2.0510    -2.4990 c          1 SHX       0.598100
     18 N5          -0.3080    -2.1720    -2.6210 nt         1 SHX      -0.579000
     19 O            1.7560    -2.4570    -3.4020 o          1 SHX      -0.601100
     20 C12          3.1030    -1.5260    -1.0170 c3         1 SHX      -0.045100
     21 C13          3.6350    -0.9360     0.2890 ca         1 SHX      -0.089300
     22 C18          3.3070    -1.5330     1.5220 ca         1 SHX      -0.106500
     23 C17          3.7820    -0.9840     2.7250 ca         1 SHX      -0.105500
     24 C16          4.5890     0.1660     2.7040 ca         1 SHX      -0.106000
     25 C15          4.9220     0.7650     1.4770 ca         1 SHX      -0.105500
     26 C14          4.4480     0.2150     0.2730 ca         1 SHX      -0.106500
     27 H1          -1.2280     4.5030     0.3410 hc         1 SHX       0.061033
     28 H2          -2.3940     3.9140     1.5350 hc         1 SHX       0.061033
     29 H3          -0.6700     3.9570     1.9330 hc         1 SHX       0.061033
     30 H4          -4.6710     0.7570     1.3190 ha         1 SHX       0.149000
     31 H5          -6.6180    -0.8010     1.3910 ha         1 SHX       0.122000
     32 H6          -6.3610    -3.0910     0.3720 ha         1 SHX       0.124000
     33 H7          -4.1710    -3.7160    -0.6710 h4         1 SHX       0.016100
     34 H8           1.9760     0.7200    -1.0440 hn         1 SHX       0.520000
     35 H9           1.1080    -1.9520    -0.3450 h1         1 SHX       0.073700
     36 H10         -0.9100    -1.8160    -1.8900 hn         1 SHX       0.311000
     37 H11         -0.6970    -2.5830    -3.4550 hn         1 SHX       0.311000
     38 H12          3.3670    -2.5900    -1.0680 hc         1 SHX       0.068700
     39 H13          3.5930    -1.0530    -1.8780 hc         1 SHX       0.068700
     40 H14          2.6820    -2.4230     1.5500 ha         1 SHX       0.111500
     41 H15          3.5250    -1.4490     3.6740 ha         1 SHX       0.114500
     42 H16          4.9560     0.5920     3.6350 ha         1 SHX       0.114000
     43 H17          5.5470     1.6550     1.4590 ha         1 SHX       0.114500
     44 H18          4.7120     0.6890    -0.6700 ha         1 SHX       0.111500
@<TRIPOS>BOND
     1     1     2 1   
     2     2     3 ar  
     3     2    14 ar  
     4     3     4 1   
     5     3     5 ar  
     6     4    27 1   
     7     4    28 1   
     8     4    29 1   
     9     5     6 ar  
    10     6     7 1   
    11     6    13 ar  
    12     7     8 ar  
    13     7    12 ar  
    14     8     9 ar  
    15     8    30 1   
    16     9    10 ar  
    17     9    31 1   
    18    10    11 ar  
    19    10    32 1   
    20    11    12 ar  
    21    11    33 1   
    22    13    14 ar  
    23    14    15 1   
    24    15    16 1   
    25    15    34 1   
    26    16    17 1   
    27    16    20 1   
    28    16    35 1   
    29    17    18 1   
    30    17    19 2   
    31    18    36 1   
    32    18    37 1   
    33    20    21 1   
    34    20    38 1   
    35    20    39 1   
    36    21    22 ar  
    37    21    26 ar  
    38    22    23 ar  
    39    22    40 1   
    40    23    24 ar  
    41    23    41 1   
    42    24    25 ar  
    43    24    42 1   
    44    25    26 ar  
    45    25    43 1   
    46    26    44 1   
@<TRIPOS>SUBSTRUCTURE
     1 SHX         1 TEMP              0 ****  ****    0 ROOT
