@<TRIPOS>MOLECULE
SHX
   44    46     1     0     0
SMALL
abcg2


@<TRIPOS>ATOM
      1 CL           1.0940     3.2470     0.1120 cl         1 SHX      -0.186000
      2 C8          -0.2330     2.1430     0.1270 ca         1 SHX      -0.072000
      3 C7          -1.5170     2.5620     0.4070 ca         1 SHX       0.179300
      4 C19         -1.8350     3.9890     0.7120 c3         1 SHX      -0.151400
      5 N2          -2.5250     1.6840     0.4140 nb         1 SHX      -0.232000
      6 C6          -2.2400     0.4180     0.1530 cp         1 SHX       0.137000
      7 C5          -3.3760    -0.5430     0.1590 cp         1 SHX       0.293000
      8 C4          -4.6830    -0.0880     0.3160 ca         1 SHX      -0.112000
      9 C3          -5.7150    -1.0120     0.3000 ca         1 SHX      -0.086000
     10 C2          -5.4090    -2.3530     0.1340 ca         1 SHX      -0.150000
     11 C1          -4.0730    -2.7060    -0.0090 ca         1 SHX       0.323900
     12 N1          -3.0810    -1.8300     0.0010 nb         1 SHX      -0.642000
     13 N3          -1.0430    -0.0670    -0.1220 nb         1 SHX      -0.240000
     14 C9          -0.0170     0.7790    -0.1490 ca         1 SHX       0.407900
     15 N4           1.1900     0.2740    -0.4350 nu         1 SHX      -0.904100
     16 C10          1.3730    -1.1250    -0.7130 c3         1 SHX       0.171500
     17 C11          0.5830    -1.5410    -1.9570 c          1 SHX       0.598100
     18 N5           0.0390    -2.7640    -1.8890 nt         1 SHX      -0.579000
     19 O            0.5510    -0.8320    -2.9490 o          1 SHX      -0.601100
     20 C12          2.8620    -1.4100    -0.9480 c3         1 SHX      -0.045100
     21 C13          3.7010    -1.0580     0.2500 ca         1 SHX      -0.089300
     22 C18          3.6560    -1.8480     1.3980 ca         1 SHX      -0.106500
     23 C17          4.3990    -1.5110     2.5200 ca         1 SHX      -0.105500
     24 C16          5.2000    -0.3750     2.5110 ca         1 SHX      -0.106000
     25 C15          5.2540     0.4170     1.3730 ca         1 SHX      -0.105500
     26 C14          4.5090     0.0750     0.2510 ca         1 SHX      -0.106500
     27 H1          -1.5830     4.6360    -0.1300 hc         1 SHX       0.061033
     28 H2          -2.8950     4.0960     0.9270 hc         1 SHX       0.061033
     29 H3          -1.2650     4.3450     1.5710 hc         1 SHX       0.061033
     30 H4          -4.8800     0.9670     0.4440 ha         1 SHX       0.149000
     31 H5          -6.7410    -0.6880     0.4170 ha         1 SHX       0.122000
     32 H6          -6.1800    -3.1110     0.1150 ha         1 SHX       0.124000
     33 H7          -3.7960    -3.7470    -0.1360 h4         1 SHX       0.016100
     34 H8           1.9750     0.8980    -0.5190 hn         1 SHX       0.520000
     35 H9           1.0330    -1.7100     0.1480 h1         1 SHX       0.073700
     36 H10         -0.1090    -3.2060    -0.9980 hn         1 SHX       0.311000
     37 H11         -0.5390    -3.0900    -2.6470 hn         1 SHX       0.311000
     38 H12          2.9680    -2.4710    -1.1860 hc         1 SHX       0.068700
     39 H13          3.2010    -0.8520    -1.8250 hc         1 SHX       0.068700
     40 H14          3.0340    -2.7360     1.4140 ha         1 SHX       0.111500
     41 H15          4.3530    -2.1360     3.4020 ha         1 SHX       0.114500
     42 H16          5.7820    -0.1130     3.3850 ha         1 SHX       0.114000
     43 H17          5.8780     1.3010     1.3560 ha         1 SHX       0.114500
     44 H18          4.5650     0.6960    -0.6370 ha         1 SHX       0.111500
@<TRIPOS>BOND
     1     1     2 1   
     2     2     3 ar  
     3     2    14 ar  
     4     3     4 1   
     5     3     5 ar  
     6     4    27 1   
     7     4    28 1   
     8     4    29 1   
     9     5     6 ar  
    10     6     7 1   
    11     6    13 ar  
    12     7     8 ar  
    13     7    12 ar  
    14     8     9 ar  
    15     8    30 1   
    16     9    10 ar  
    17     9    31 1   
    18    10    11 ar  
    19    10    32 1   
    20    11    12 ar  
    21    11    33 1   
    22    13    14 ar  
    23    14    15 1   
    24    15    16 1   
    25    15    34 1   
    26    16    17 1   
    27    16    20 1   
    28    16    35 1   
    29    17    18 1   
    30    17    19 2   
    31    18    36 1   
    32    18    37 1   
    33    20    21 1   
    34    20    38 1   
    35    20    39 1   
    36    21    22 ar  
    37    21    26 ar  
    38    22    23 ar  
    39    22    40 1   
    40    23    24 ar  
    41    23    41 1   
    42    24    25 ar  
    43    24    42 1   
    44    25    26 ar  
    45    25    43 1   
    46    26    44 1   
@<TRIPOS>SUBSTRUCTURE
     1 SHX         1 TEMP              0 ****  ****    0 ROOT
