@<TRIPOS>MOLECULE
SHY
   57    62     1     0     0
SMALL
abcg2


@<TRIPOS>ATOM
      1 N1           4.6140     0.1790     5.2960 n2         1 SHY      -0.845100
      2 C3           4.1120    -0.4020     4.2740 ce         1 SHY       0.661800
      3 N2           4.8060    -1.3810     3.6270 nv         1 SHY      -1.032200
      4 C4           2.7560    -0.1260     3.7230 ca         1 SHY      -0.186900
      5 C9           2.2290     1.1630     3.7820 ca         1 SHY      -0.089500
      6 C8           0.9630     1.4270     3.2890 ca         1 SHY      -0.090500
      7 C7           0.1890     0.4160     2.7290 ca         1 SHY      -0.079300
      8 C6           0.7100    -0.8720     2.6770 ca         1 SHY      -0.090500
      9 C5           1.9810    -1.1390     3.1630 ca         1 SHY      -0.089500
     10 C10         -1.1660     0.7410     2.1600 c5         1 SHY       0.224800
     11 N11         -2.0760    -0.4000     2.2140 n3         1 SHY      -0.683600
     12 C12         -2.7870    -0.5130     3.4740 c5         1 SHY       0.105800
     13 C13         -3.9790     0.4800     3.4090 c5         1 SHY       0.138300
     14 C14         -4.1330     0.7730     1.9070 c5         1 SHY      -0.104400
     15 C15         -3.1190    -0.1600     1.2240 c5         1 SHY       0.163500
     16 C16         -2.3570     0.4230     0.0480 c5         1 SHY      -0.149700
     17 C17         -1.7290    -0.6570    -0.8050 c          1 SHY       0.584000
     18 N19         -0.3710    -0.4430    -0.8550 n          1 SHY      -0.378400
     19 C20          0.0300     0.6470    -0.1110 c          1 SHY       0.582000
     20 O21          1.1530     1.0800    -0.0950 o          1 SHY      -0.493000
     21 C22         -1.1630     1.1590     0.6580 c5         1 SHY      -0.157700
     22 C23          0.5500    -1.2400    -1.6490 c3         1 SHY       0.158300
     23 C24          0.7930    -0.6520    -3.0140 ca         1 SHY      -0.121300
     24 C32          1.9390     0.0890    -3.2640 ca         1 SHY      -0.084000
     25 C31          2.1910     0.6620    -4.5180 ca         1 SHY      -0.104000
     26 C30          1.2470     0.4600    -5.4920 ca         1 SHY       0.062100
     27 O29          1.2510     0.8740    -6.7810 os         1 SHY      -0.343100
     28 C28         -0.0330     0.5540    -7.3020 c5         1 SHY       0.372600
     29 O20         -5.1730    -0.0580     3.9310 oh         1 SHY      -0.649000
     30 O27         -0.6360    -0.3510    -6.3870 os         1 SHY      -0.343100
     31 C26          0.1000    -0.2820    -5.2500 ca         1 SHY       0.044100
     32 C25         -0.1570    -0.8530    -4.0310 ca         1 SHY      -0.080000
     33 O24         -2.3020    -1.5590    -1.3670 o          1 SHY      -0.503000
     34 H1N          3.9380     0.8010     5.7240 hn         1 SHY       0.387400
     35 H2N1         5.7710    -1.4920     3.8950 hn         1 SHY       0.469500
     36 H2N2         4.6320    -1.5200     2.6450 hn         1 SHY       0.469500
     37 H9           2.8140     1.9720     4.2010 ha         1 SHY       0.122500
     38 H8           0.5740     2.4370     3.3360 ha         1 SHY       0.123500
     39 H6           0.1160    -1.6750     2.2610 ha         1 SHY       0.123500
     40 H5           2.3580    -2.1530     3.1220 ha         1 SHY       0.122500
     41 H10         -1.5570     1.6070     2.7150 h1         1 SHY       0.044700
     42 H121        -2.1190    -0.3400     4.3190 h1         1 SHY       0.070700
     43 H122        -3.1840    -1.5280     3.5720 h1         1 SHY       0.070700
     44 H13         -3.7200     1.4030     3.9390 h1         1 SHY       0.034700
     45 H141        -3.9080     1.8210     1.6950 hc         1 SHY       0.065200
     46 H142        -5.1520     0.5900     1.5650 hc         1 SHY       0.065200
     47 H15         -3.6050    -1.1040     0.9610 h1         1 SHY       0.104700
     48 H16         -2.9790     1.0530    -0.5910 hc         1 SHY       0.099700
     49 H22         -1.2100     2.2430     0.5690 hc         1 SHY       0.095700
     50 H231         1.4830    -1.3210    -1.0940 h1         1 SHY       0.072700
     51 H232         0.1310    -2.2430    -1.7260 h1         1 SHY       0.072700
     52 H32          2.6610     0.2360    -2.4720 ha         1 SHY       0.129000
     53 H31          3.0910     1.2330    -4.7040 ha         1 SHY       0.136000
     54 H281        -0.6390     1.4630    -7.3800 h2         1 SHY       0.064700
     55 H282         0.0720     0.0780    -8.2770 h2         1 SHY       0.064700
     56 H20         -5.0670    -0.1580     4.8820 ho         1 SHY       0.447000
     57 H25         -1.0480    -1.4420    -3.8600 ha         1 SHY       0.146000
@<TRIPOS>BOND
     1     1     2 2   
     2     1    34 1   
     3     2     3 1   
     4     2     4 1   
     5     3    35 1   
     6     3    36 1   
     7     4     5 ar  
     8     4     9 ar  
     9     5     6 ar  
    10     5    37 1   
    11     6     7 ar  
    12     6    38 1   
    13     7     8 ar  
    14     7    10 1   
    15     8     9 ar  
    16     8    39 1   
    17     9    40 1   
    18    10    11 1   
    19    10    21 1   
    20    10    41 1   
    21    11    12 1   
    22    11    15 1   
    23    12    13 1   
    24    12    42 1   
    25    12    43 1   
    26    13    14 1   
    27    13    29 1   
    28    13    44 1   
    29    14    15 1   
    30    14    45 1   
    31    14    46 1   
    32    15    16 1   
    33    15    47 1   
    34    16    17 1   
    35    16    21 1   
    36    16    48 1   
    37    17    18 1   
    38    17    33 2   
    39    18    19 1   
    40    18    22 1   
    41    19    20 2   
    42    19    21 1   
    43    21    49 1   
    44    22    23 1   
    45    22    50 1   
    46    22    51 1   
    47    23    24 ar  
    48    23    32 ar  
    49    24    25 ar  
    50    24    52 1   
    51    25    26 ar  
    52    25    53 1   
    53    26    27 1   
    54    26    31 ar  
    55    27    28 1   
    56    28    30 1   
    57    28    54 1   
    58    28    55 1   
    59    29    56 1   
    60    30    31 1   
    61    31    32 ar  
    62    32    57 1   
@<TRIPOS>SUBSTRUCTURE
     1 SHY         1 TEMP              0 ****  ****    0 ROOT
