@<TRIPOS>MOLECULE
SHY
   57    62     1     0     0
SMALL
No Charge or Current Charge


@<TRIPOS>ATOM
      1 N1           4.7320     0.5620     5.3300 n2         1 SHY      -0.845100
      2 C3           4.1840    -0.2450     4.5190 ce         1 SHY       0.661800
      3 N2           4.9090    -1.2880     4.0790 nv         1 SHY      -1.032200
      4 C4           2.8440    -0.0070     3.8960 ca         1 SHY      -0.186900
      5 C9           2.2980     1.2950     3.8220 ca         1 SHY      -0.089500
      6 C8           1.0240     1.5100     3.2700 ca         1 SHY      -0.090500
      7 C7           0.2510     0.4360     2.7890 ca         1 SHY      -0.079300
      8 C6           0.7840    -0.8680     2.8830 ca         1 SHY      -0.090500
      9 C5           2.0580    -1.0880     3.4320 ca         1 SHY      -0.089500
     10 C10         -1.1370     0.7150     2.1960 c5         1 SHY       0.224800
     11 N11         -2.0150    -0.4830     2.1010 n3         1 SHY      -0.683600
     12 C12         -2.7070    -0.7310     3.3980 c5         1 SHY       0.105800
     13 C13         -3.9070     0.2930     3.4490 c5         1 SHY       0.138300
     14 C14         -3.9950     0.8620     1.9960 c5         1 SHY      -0.104400
     15 C15         -3.1040    -0.1280     1.1850 c5         1 SHY       0.163500
     16 C16         -2.3660     0.6400     0.0490 c5         1 SHY      -0.149700
     17 C17         -1.9630    -0.4110    -0.9910 c          1 SHY       0.584000
     18 N19         -0.5830    -0.5170    -0.9040 n          1 SHY      -0.378400
     19 C20          0.0880     0.3380    -0.0400 c          1 SHY       0.582000
     20 O21          1.2950     0.5360    -0.0620 o          1 SHY      -0.493000
     21 C22         -1.0090     1.1330     0.6930 c5         1 SHY      -0.157700
     22 C23          0.1630    -1.4110    -1.8130 c3         1 SHY       0.158300
     23 C24          0.5280    -0.7560    -3.1410 ca         1 SHY      -0.121300
     24 C32          1.7670    -0.0820    -3.2890 ca         1 SHY      -0.084000
     25 C31          2.1120     0.5280    -4.5150 ca         1 SHY      -0.104000
     26 C30          1.1970     0.4470    -5.5700 ca         1 SHY       0.062100
     27 O29          1.3680     0.9650    -6.8130 os         1 SHY      -0.343100
     28 C28          0.0970     0.6370    -7.4800 c5         1 SHY       0.372600
     29 O20         -5.1360    -0.3310     3.8340 oh         1 SHY      -0.649000
     30 O27         -0.7310    -0.1800    -6.5770 os         1 SHY      -0.343100
     31 C26          0.0040    -0.2040    -5.4360 ca         1 SHY       0.044100
     32 C25         -0.3670    -0.8230    -4.2360 ca         1 SHY      -0.080000
     33 O24         -2.6650    -0.9550    -1.8320 o          1 SHY      -0.503000
     34 H1N          4.0300     1.2640     5.5930 hn         1 SHY       0.387400
     35 H2N1         5.8980    -1.2050     4.2790 hn         1 SHY       0.469500
     36 H2N2         4.6710    -1.6250     3.1540 hn         1 SHY       0.469500
     37 H9           2.8640     2.1540     4.1750 ha         1 SHY       0.122500
     38 H8           0.6330     2.5240     3.2140 ha         1 SHY       0.123500
     39 H6           0.2110    -1.7220     2.5280 ha         1 SHY       0.123500
     40 H5           2.4260    -2.1090     3.5040 ha         1 SHY       0.122500
     41 H10         -1.6040     1.5280     2.7700 h1         1 SHY       0.044700
     42 H121        -2.0330    -0.6150     4.2590 h1         1 SHY       0.070700
     43 H122        -3.0870    -1.7610     3.4270 h1         1 SHY       0.070700
     44 H13         -3.6760     1.1100     4.1460 h1         1 SHY       0.034700
     45 H141        -3.6330     1.8960     1.9590 hc         1 SHY       0.065200
     46 H142        -5.0210     0.8850     1.6130 hc         1 SHY       0.065200
     47 H15         -3.6810    -1.0020     0.8410 h1         1 SHY       0.104700
     48 H16         -2.9930     1.4030    -0.4230 hc         1 SHY       0.099700
     49 H22         -0.7990     2.2040     0.5980 hc         1 SHY       0.095700
     50 H231         1.0800    -1.7500    -1.3110 h1         1 SHY       0.072700
     51 H232        -0.4360    -2.3120    -2.0040 h1         1 SHY       0.072700
     52 H32          2.4640    -0.0310    -2.4550 ha         1 SHY       0.129000
     53 H31          3.0600     1.0460    -4.6380 ha         1 SHY       0.136000
     54 H281        -0.4360     1.5660    -7.7130 h2         1 SHY       0.064700
     55 H282         0.2990     0.0780    -8.4010 h2         1 SHY       0.064700
     56 H20         -5.0470    -0.5810     4.7800 ho         1 SHY       0.447000
     57 H25         -1.3210    -1.3380    -4.1570 ha         1 SHY       0.146000
@<TRIPOS>BOND
     1     1     2 2   
     2     1    34 1   
     3     2     3 1   
     4     2     4 1   
     5     3    35 1   
     6     3    36 1   
     7     4     5 ar  
     8     4     9 ar  
     9     5     6 ar  
    10     5    37 1   
    11     6     7 ar  
    12     6    38 1   
    13     7     8 ar  
    14     7    10 1   
    15     8     9 ar  
    16     8    39 1   
    17     9    40 1   
    18    10    11 1   
    19    10    21 1   
    20    10    41 1   
    21    11    12 1   
    22    11    15 1   
    23    12    13 1   
    24    12    42 1   
    25    12    43 1   
    26    13    14 1   
    27    13    29 1   
    28    13    44 1   
    29    14    15 1   
    30    14    45 1   
    31    14    46 1   
    32    15    16 1   
    33    15    47 1   
    34    16    17 1   
    35    16    21 1   
    36    16    48 1   
    37    17    18 1   
    38    17    33 2   
    39    18    19 1   
    40    18    22 1   
    41    19    20 2   
    42    19    21 1   
    43    21    49 1   
    44    22    23 1   
    45    22    50 1   
    46    22    51 1   
    47    23    24 ar  
    48    23    32 ar  
    49    24    25 ar  
    50    24    52 1   
    51    25    26 ar  
    52    25    53 1   
    53    26    27 1   
    54    26    31 ar  
    55    27    28 1   
    56    28    30 1   
    57    28    54 1   
    58    28    55 1   
    59    29    56 1   
    60    30    31 1   
    61    31    32 ar  
    62    32    57 1   
@<TRIPOS>SUBSTRUCTURE
     1 SHY         1 TEMP              0 ****  ****    0 ROOT
