@<TRIPOS>MOLECULE
SI1
   58    58     1     0     0
SMALL
No Charge or Current Charge


@<TRIPOS>ATOM
      1 N4          -9.8910    -1.9560    -0.1130 nv         1 SI1      -1.075200
      2 N5          -9.9660    -0.0140     1.0190 n2         1 SI1      -0.826100
      3 C18         -9.2940    -0.8160     0.3010 ce         1 SI1       0.657800
      4 C14         -7.9140    -0.5110    -0.2080 ca         1 SI1      -0.133900
      5 C13         -7.4260     0.8160    -0.1950 ca         1 SI1      -0.081000
      6 C12         -6.1260     1.1110    -0.6410 ca         1 SI1      -0.104500
      7 C17         -5.2790     0.0840    -1.0950 ca         1 SI1      -0.106300
      8 C16         -5.7440    -1.2430    -1.0880 ca         1 SI1      -0.104500
      9 C15         -7.0440    -1.5400    -0.6440 ca         1 SI1      -0.081000
     10 C11         -3.8700     0.4040    -1.5690 c3         1 SI1       0.149300
     11 N3          -2.9280     0.3850    -0.4550 ns         1 SI1      -0.498900
     12 C10         -1.5860     0.6740    -0.5680 c          1 SI1       0.590100
     13 O5          -1.0820     0.9660    -1.6470 o          1 SI1      -0.617100
     14 C8          -0.7730     0.5970     0.7590 c3         1 SI1       0.037700
     15 N2           0.6770     0.7070     0.4840 ns         1 SI1      -0.505900
     16 C7           1.6850     0.2910     1.3370 c          1 SI1       0.616100
     17 O4           1.4290    -0.2320     2.4170 o          1 SI1      -0.567100
     18 C5           3.1430     0.5390     0.8230 c3         1 SI1       0.153500
     19 C6           3.9640     1.3290     1.8880 c3         1 SI1       0.136600
     20 O3           4.7290     0.4300     2.7170 oh         1 SI1      -0.650000
     21 N1           3.8500    -0.7360     0.4640 n7         1 SI1      -0.884300
     22 S1           4.9080    -0.7990    -0.8210 s6         1 SI1       1.204100
     23 O2           5.3400    -2.1940    -0.9080 o          1 SI1      -0.525500
     24 O1           4.2200    -0.1690    -1.9500 o          1 SI1      -0.525500
     25 C1           6.2860     0.2370    -0.3000 c3         1 SI1      -0.348400
     26 C4           7.4690     0.2140    -1.2980 c3         1 SI1      -0.044400
     27 C3           8.6350     1.1170    -0.8440 c3         1 SI1      -0.069400
     28 C2           9.8240     1.1090    -1.8240 c3         1 SI1      -0.091100
     29 C9          -1.2210     1.6770     1.7730 c3         1 SI1      -0.111100
     30 H41        -10.9040    -1.9410    -0.1300 hn         1 SI1       0.462000
     31 H42         -9.4570    -2.4070    -0.9100 hn         1 SI1       0.462000
     32 H51        -10.7650    -0.5290     1.4050 hn         1 SI1       0.373400
     33 H14         -8.0590     1.6290     0.1540 ha         1 SI1       0.131000
     34 H17         -5.7750     2.1410    -0.6280 ha         1 SI1       0.120000
     35 H16         -5.0940    -2.0490    -1.4200 ha         1 SI1       0.120000
     36 H15         -7.3630    -2.5800    -0.6300 ha         1 SI1       0.131000
     37 H11         -3.8520     1.3970    -2.0390 h1         1 SI1       0.060700
     38 H12         -3.5520    -0.3320    -2.3200 h1         1 SI1       0.060700
     39 H31         -3.2770     0.1490     0.4660 hn         1 SI1       0.325500
     40 H81         -0.9720    -0.3930     1.1910 h1         1 SI1       0.086700
     41 H21          0.9600     1.0840    -0.4150 hn         1 SI1       0.333500
     42 H52          3.0340     1.1870    -0.0580 h1         1 SI1       0.091700
     43 H61          4.6400     2.0240     1.3750 h1         1 SI1       0.029200
     44 H62          3.2850     1.9400     2.4980 h1         1 SI1       0.029200
     45 H32          5.1380     0.9700     3.4310 ho         1 SI1       0.452000
     46 H13          4.4870    -0.9020     1.2500 hn         1 SI1       0.517000
     47 H22          6.6080    -0.1290     0.6810 h1         1 SI1       0.084700
     48 H23          5.8970     1.2550    -0.2090 h1         1 SI1       0.084700
     49 H43          7.1230     0.5430    -2.2870 hc         1 SI1       0.059200
     50 H44          7.8350    -0.8150    -1.4120 hc         1 SI1       0.059200
     51 H33          8.9840     0.7900     0.1440 hc         1 SI1       0.037700
     52 H34          8.2730     2.1470    -0.7300 hc         1 SI1       0.037700
     53 H24         10.6240     1.7630    -1.4590 hc         1 SI1       0.035033
     54 H25         10.2310     0.0960    -1.9320 hc         1 SI1       0.035033
     55 H26          9.5140     1.4650    -2.8140 hc         1 SI1       0.035033
     56 H91         -2.2860     1.5750     2.0120 hc         1 SI1       0.050367
     57 H92         -0.6590     1.5910     2.7110 hc         1 SI1       0.050367
     58 H93         -1.0560     2.6820     1.3660 hc         1 SI1       0.050367
@<TRIPOS>BOND
     1     1     3 1   
     2     1    30 1   
     3     1    31 1   
     4     2     3 2   
     5     2    32 1   
     6     3     4 1   
     7     4     5 ar  
     8     4     9 ar  
     9     5     6 ar  
    10     5    33 1   
    11     6     7 ar  
    12     6    34 1   
    13     7     8 ar  
    14     7    10 1   
    15     8     9 ar  
    16     8    35 1   
    17     9    36 1   
    18    10    11 1   
    19    10    37 1   
    20    10    38 1   
    21    11    12 1   
    22    11    39 1   
    23    12    13 2   
    24    12    14 1   
    25    14    15 1   
    26    14    29 1   
    27    14    40 1   
    28    15    16 1   
    29    15    41 1   
    30    16    17 2   
    31    16    18 1   
    32    18    19 1   
    33    18    21 1   
    34    18    42 1   
    35    19    20 1   
    36    19    43 1   
    37    19    44 1   
    38    20    45 1   
    39    21    22 1   
    40    21    46 1   
    41    22    23 2   
    42    22    24 2   
    43    22    25 1   
    44    25    26 1   
    45    25    47 1   
    46    25    48 1   
    47    26    27 1   
    48    26    49 1   
    49    26    50 1   
    50    27    28 1   
    51    27    51 1   
    52    27    52 1   
    53    28    53 1   
    54    28    54 1   
    55    28    55 1   
    56    29    56 1   
    57    29    57 1   
    58    29    58 1   
@<TRIPOS>SUBSTRUCTURE
     1 SI1         1 TEMP              0 ****  ****    0 ROOT
