@<TRIPOS>MOLECULE
SI1
   58    58     1     0     0
SMALL
abcg2


@<TRIPOS>ATOM
      1 N4          -8.8290    -2.6420    -1.3550 nv         1 SI1      -1.075200
      2 N5          -9.4730    -1.4860     0.5960 n2         1 SI1      -0.826100
      3 C18         -8.6870    -1.6840    -0.3920 ce         1 SI1       0.657800
      4 C14         -7.4600    -0.8470    -0.5040 ca         1 SI1      -0.133900
      5 C13         -7.4410     0.4200     0.0740 ca         1 SI1      -0.081000
      6 C12         -6.3130     1.2190    -0.0180 ca         1 SI1      -0.104500
      7 C17         -5.1760     0.7720    -0.6820 ca         1 SI1      -0.106300
      8 C16         -5.1890    -0.4990    -1.2480 ca         1 SI1      -0.104500
      9 C15         -6.3180    -1.2990    -1.1630 ca         1 SI1      -0.081000
     10 C11         -3.9470     1.6320    -0.7660 c3         1 SI1       0.149300
     11 N3          -2.9260     1.1330     0.1380 ns         1 SI1      -0.498900
     12 C10         -1.6540     1.5410     0.0840 c          1 SI1       0.590100
     13 O5          -1.2300     2.3110    -0.7660 o          1 SI1      -0.617100
     14 C8          -0.7640     1.0100     1.2030 c3         1 SI1       0.037700
     15 N2           0.6060     1.0730     0.7570 ns         1 SI1      -0.505900
     16 C7           1.5760     0.3000     1.2650 c          1 SI1       0.616100
     17 O4           1.3810    -0.5800     2.0840 o          1 SI1      -0.567100
     18 C5           2.9780     0.6280     0.7330 c3         1 SI1       0.153500
     19 C6           3.4380     1.9820     1.2620 c3         1 SI1       0.136600
     20 O3           3.4180     1.9150     2.6640 oh         1 SI1      -0.650000
     21 N1           3.8820    -0.4400     1.1020 n7         1 SI1      -0.884300
     22 S1           4.9070    -1.1310     0.0280 s6         1 SI1       1.204100
     23 O2           5.4940    -2.2780     0.7050 o          1 SI1      -0.525500
     24 O1           4.1640    -1.3340    -1.2090 o          1 SI1      -0.525500
     25 C1           6.2170     0.0430    -0.3010 c3         1 SI1      -0.348400
     26 C4           7.2340    -0.5060    -1.2920 c3         1 SI1      -0.044400
     27 C3           8.3830     0.4750    -1.5010 c3         1 SI1      -0.069400
     28 C2           9.4090    -0.0530    -2.4940 c3         1 SI1      -0.091100
     29 C9          -0.9910     1.8290     2.4760 c3         1 SI1      -0.111100
     30 H41         -9.7130    -3.1250    -1.3990 hn         1 SI1       0.462000
     31 H42         -8.4170    -2.4770    -2.2580 hn         1 SI1       0.462000
     32 H51        -10.2850    -2.0950     0.5480 hn         1 SI1       0.373400
     33 H14         -8.3190     0.7810     0.5910 ha         1 SI1       0.131000
     34 H17         -6.3190     2.2060     0.4300 ha         1 SI1       0.120000
     35 H16         -4.3120    -0.8720    -1.7620 ha         1 SI1       0.120000
     36 H15         -6.2920    -2.2880    -1.6030 ha         1 SI1       0.131000
     37 H11         -4.1980     2.6690    -0.5250 h1         1 SI1       0.060700
     38 H12         -3.5510     1.6260    -1.7840 h1         1 SI1       0.060700
     39 H31         -3.2140     0.5210     0.8850 hn         1 SI1       0.325500
     40 H81         -1.0190    -0.0330     1.4020 h1         1 SI1       0.086700
     41 H21          0.8280     1.7840     0.0750 hn         1 SI1       0.333500
     42 H52          2.9300     0.6930    -0.3570 h1         1 SI1       0.091700
     43 H61          4.4400     2.1920     0.8710 h1         1 SI1       0.029200
     44 H62          2.7790     2.7680     0.8740 h1         1 SI1       0.029200
     45 H32          3.7900     2.7280     3.0180 ho         1 SI1       0.452000
     46 H13          4.2110    -0.4420     2.0600 hn         1 SI1       0.517000
     47 H22          6.6780     0.2710     0.6630 h1         1 SI1       0.084700
     48 H23          5.7460     0.9530    -0.6780 h1         1 SI1       0.084700
     49 H43          6.7450    -0.7070    -2.2480 hc         1 SI1       0.059200
     50 H44          7.6310    -1.4560    -0.9270 hc         1 SI1       0.059200
     51 H33          8.8660     0.6760    -0.5410 hc         1 SI1       0.037700
     52 H34          7.9880     1.4310    -1.8540 hc         1 SI1       0.037700
     53 H24         10.2260     0.6540    -2.6320 hc         1 SI1       0.035033
     54 H25          9.8410    -0.9960    -2.1520 hc         1 SI1       0.035033
     55 H26          8.9550    -0.2320    -3.4700 hc         1 SI1       0.035033
     56 H91         -2.0240     1.7550     2.8140 hc         1 SI1       0.050367
     57 H92         -0.3520     1.4580     3.2760 hc         1 SI1       0.050367
     58 H93         -0.7560     2.8810     2.3080 hc         1 SI1       0.050367
@<TRIPOS>BOND
     1     1     3 1   
     2     1    30 1   
     3     1    31 1   
     4     2     3 2   
     5     2    32 1   
     6     3     4 1   
     7     4     5 ar  
     8     4     9 ar  
     9     5     6 ar  
    10     5    33 1   
    11     6     7 ar  
    12     6    34 1   
    13     7     8 ar  
    14     7    10 1   
    15     8     9 ar  
    16     8    35 1   
    17     9    36 1   
    18    10    11 1   
    19    10    37 1   
    20    10    38 1   
    21    11    12 1   
    22    11    39 1   
    23    12    13 2   
    24    12    14 1   
    25    14    15 1   
    26    14    29 1   
    27    14    40 1   
    28    15    16 1   
    29    15    41 1   
    30    16    17 2   
    31    16    18 1   
    32    18    19 1   
    33    18    21 1   
    34    18    42 1   
    35    19    20 1   
    36    19    43 1   
    37    19    44 1   
    38    20    45 1   
    39    21    22 1   
    40    21    46 1   
    41    22    23 2   
    42    22    24 2   
    43    22    25 1   
    44    25    26 1   
    45    25    47 1   
    46    25    48 1   
    47    26    27 1   
    48    26    49 1   
    49    26    50 1   
    50    27    28 1   
    51    27    51 1   
    52    27    52 1   
    53    28    53 1   
    54    28    54 1   
    55    28    55 1   
    56    29    56 1   
    57    29    57 1   
    58    29    58 1   
@<TRIPOS>SUBSTRUCTURE
     1 SI1         1 TEMP              0 ****  ****    0 ROOT
