@<TRIPOS>MOLECULE
SI3
   39    38     1     0     0
SMALL
abcg2


@<TRIPOS>ATOM
      1 O1A         -6.0470    -0.8410    -0.3850 o          1 SI3      -0.695500
      2 C1          -5.0440    -0.1210    -0.2890 c          1 SI3       0.648000
      3 O1B         -4.9760     1.1190    -0.2480 o          1 SI3      -0.695500
      4 C2          -3.6810    -0.8710    -0.2160 c          1 SI3       0.426100
      5 O2          -3.6440    -2.0790    -0.2320 o          1 SI3      -0.550100
      6 C3          -2.4340    -0.0240    -0.1680 c3         1 SI3      -0.230400
      7 C4          -1.1610    -0.8030     0.1160 c3         1 SI3       0.167300
      8 O4          -1.1570    -1.3280     1.4270 oh         1 SI3      -0.651000
      9 C5           0.0880     0.0500    -0.1540 c3         1 SI3       0.045700
     10 N5           0.1080     1.2230     0.6920 ns         1 SI3      -0.513900
     11 C10         -0.0870     2.4890     0.2620 c          1 SI3       0.606100
     12 C11          0.0380     3.5330     1.3450 c3         1 SI3      -0.180100
     13 O10         -0.3410     2.7690    -0.8990 o          1 SI3      -0.585100
     14 C6           1.3890    -0.7480     0.0360 c3         1 SI3       0.137300
     15 O6           1.3690    -1.9370    -0.7250 oh         1 SI3      -0.699000
     16 C7           2.6350     0.0910    -0.2760 c3         1 SI3       0.102300
     17 O7           2.6170     0.5700    -1.6050 oh         1 SI3      -0.709000
     18 C8           3.9380    -0.6700     0.0270 c3         1 SI3       0.137300
     19 O8           3.9340    -1.1880     1.3370 oh         1 SI3      -0.687000
     20 C9           5.1520     0.2140    -0.2200 c3         1 SI3       0.124600
     21 O9           6.3180    -0.5450    -0.0050 oh         1 SI3      -0.708000
     22 H2          -2.3600     0.4910    -1.1330 hc         1 SI3       0.075200
     23 H3          -2.5750     0.7810     0.5590 hc         1 SI3       0.075200
     24 H4          -1.1250    -1.6660    -0.5530 h1         1 SI3       0.091700
     25 H5          -1.4170    -0.6330     2.0410 ho         1 SI3       0.428000
     26 H6           0.0360     0.4000    -1.1880 h1         1 SI3       0.092700
     27 H7           0.3310     1.0920     1.6670 hn         1 SI3       0.298500
     28 H8           1.0570     3.5630     1.7340 hc         1 SI3       0.054700
     29 H9          -0.2140     4.5150     0.9550 hc         1 SI3       0.054700
     30 H10         -0.6220     3.3060     2.1830 hc         1 SI3       0.054700
     31 H11          1.4480    -1.0630     1.0810 h1         1 SI3       0.094700
     32 H12          1.1460    -1.7240    -1.6370 ho         1 SI3       0.495000
     33 H13          2.6140     0.9820     0.3620 h1         1 SI3       0.068700
     34 H14          2.8600    -0.1450    -2.2040 ho         1 SI3       0.498000
     35 H15          3.9970    -1.5410    -0.6360 h1         1 SI3       0.093700
     36 H16          3.9500    -0.4520     1.9590 ho         1 SI3       0.490000
     37 H17          5.1120     0.6100    -1.2400 h1         1 SI3       0.024200
     38 H18          5.1030     1.0810     0.4580 h1         1 SI3       0.024200
     39 H19          7.0750     0.0230    -0.1740 ho         1 SI3       0.497000
@<TRIPOS>BOND
     1     1     2 1   
     2     2     3 1   
     3     2     4 1   
     4     4     5 2   
     5     4     6 1   
     6     6     7 1   
     7     6    22 1   
     8     6    23 1   
     9     7     8 1   
    10     7     9 1   
    11     7    24 1   
    12     8    25 1   
    13     9    10 1   
    14     9    14 1   
    15     9    26 1   
    16    10    11 1   
    17    10    27 1   
    18    11    12 1   
    19    11    13 2   
    20    12    28 1   
    21    12    29 1   
    22    12    30 1   
    23    14    15 1   
    24    14    16 1   
    25    14    31 1   
    26    15    32 1   
    27    16    17 1   
    28    16    18 1   
    29    16    33 1   
    30    17    34 1   
    31    18    19 1   
    32    18    20 1   
    33    18    35 1   
    34    19    36 1   
    35    20    21 1   
    36    20    37 1   
    37    20    38 1   
    38    21    39 1   
@<TRIPOS>SUBSTRUCTURE
     1 SI3         1 TEMP              0 ****  ****    0 ROOT
