@<TRIPOS>MOLECULE
SI3
   39    38     1     0     0
SMALL
No Charge or Current Charge


@<TRIPOS>ATOM
      1 O1A         -5.4740    -1.6000     1.0710 o          1 SI3      -0.695500
      2 C1          -4.7930    -0.6270     0.7540 c          1 SI3       0.648000
      3 O1B         -4.8470     0.4460     1.3510 o          1 SI3      -0.695500
      4 C2          -3.8280    -0.7500    -0.5470 c          1 SI3       0.426100
      5 O2          -4.0730    -1.5230    -1.4780 o          1 SI3      -0.550100
      6 C3          -2.5690     0.1350    -0.5990 c3         1 SI3      -0.230400
      7 C4          -1.3320    -0.6500    -0.1170 c3         1 SI3       0.167300
      8 O4          -1.5160    -0.9640     1.2700 oh         1 SI3      -0.651000
      9 C5           0.0100     0.1260    -0.3230 c3         1 SI3       0.045700
     10 N5           0.0690     1.3420     0.5240 ns         1 SI3      -0.513900
     11 C10         -0.1960     2.6220     0.0890 c          1 SI3       0.606100
     12 C11         -0.0370     3.6980     1.1540 c3         1 SI3      -0.180100
     13 O10         -0.5310     2.8780    -1.0580 o          1 SI3      -0.585100
     14 C6           1.2710    -0.7720    -0.1140 c3         1 SI3       0.137300
     15 O6           1.2490    -1.8650    -1.0450 oh         1 SI3      -0.699000
     16 C7           2.6230    -0.0250    -0.3550 c3         1 SI3       0.102300
     17 O7           2.7880     0.1450    -1.7850 oh         1 SI3      -0.709000
     18 C8           3.8530    -0.7830     0.2430 c3         1 SI3       0.137300
     19 O8           3.7260    -0.9030     1.6690 oh         1 SI3      -0.687000
     20 C9           5.2090    -0.0780    -0.0290 c3         1 SI3       0.124600
     21 O9           6.2470    -0.7090     0.7450 oh         1 SI3      -0.708000
     22 H2          -2.4010     0.4530    -1.6340 hc         1 SI3       0.075200
     23 H3          -2.6980     1.0090     0.0490 hc         1 SI3       0.075200
     24 H4          -1.2800    -1.5760    -0.7090 h1         1 SI3       0.091700
     25 H5          -1.5320    -0.1090     1.7500 ho         1 SI3       0.428000
     26 H6           0.0350     0.4470    -1.3730 h1         1 SI3       0.092700
     27 H7           0.3660     1.2470     1.4880 hn         1 SI3       0.298500
     28 H8           0.9710     3.6340     1.5790 hc         1 SI3       0.054700
     29 H9          -0.2520     4.7040     0.7750 hc         1 SI3       0.054700
     30 H10         -0.6680     3.4460     2.0140 hc         1 SI3       0.054700
     31 H11          1.2480    -1.1450     0.9210 h1         1 SI3       0.094700
     32 H12          1.8080    -1.5150    -1.7850 ho         1 SI3       0.495000
     33 H13          2.5770     0.9550     0.1400 h1         1 SI3       0.068700
     34 H14          3.1690     1.0420    -1.9400 ho         1 SI3       0.498000
     35 H15          3.8990    -1.7820    -0.2150 h1         1 SI3       0.093700
     36 H16          4.6670    -0.9740     1.9670 ho         1 SI3       0.490000
     37 H17          5.4410    -0.1390    -1.1010 h1         1 SI3       0.024200
     38 H18          5.1290     0.9850     0.2370 h1         1 SI3       0.024200
     39 H19          7.1030    -0.3010     0.4720 ho         1 SI3       0.497000
@<TRIPOS>BOND
     1     1     2 1   
     2     2     3 1   
     3     2     4 1   
     4     4     5 2   
     5     4     6 1   
     6     6     7 1   
     7     6    22 1   
     8     6    23 1   
     9     7     8 1   
    10     7     9 1   
    11     7    24 1   
    12     8    25 1   
    13     9    10 1   
    14     9    14 1   
    15     9    26 1   
    16    10    11 1   
    17    10    27 1   
    18    11    12 1   
    19    11    13 2   
    20    12    28 1   
    21    12    29 1   
    22    12    30 1   
    23    14    15 1   
    24    14    16 1   
    25    14    31 1   
    26    15    32 1   
    27    16    17 1   
    28    16    18 1   
    29    16    33 1   
    30    17    34 1   
    31    18    19 1   
    32    18    20 1   
    33    18    35 1   
    34    19    36 1   
    35    20    21 1   
    36    20    37 1   
    37    20    38 1   
    38    21    39 1   
@<TRIPOS>SUBSTRUCTURE
     1 SI3         1 TEMP              0 ****  ****    0 ROOT
