@<TRIPOS>MOLECULE
SI5
   43    46     1     0     0
SMALL
abcg2


@<TRIPOS>ATOM
      1 C1           2.2590     0.3240    -0.2780 ca         1 SI5      -0.136300
      2 C2           3.2230    -0.5170    -0.8360 ca         1 SI5      -0.045000
      3 C3           4.5780    -0.2230    -0.8320 ca         1 SI5      -0.170000
      4 C4           4.9910     0.9570    -0.2520 ca         1 SI5       0.201000
      5 C5           4.0920     1.8370     0.3140 ca         1 SI5      -0.202000
      6 C6           2.7520     1.5000     0.2840 ca         1 SI5       0.196000
      7 F1           1.9140     2.3910     0.8430 f          1 SI5      -0.179000
      8 C7           0.0160     1.0060    -1.1400 c6         1 SI5       0.175600
      9 O1          -1.3630     0.7490    -1.1720 os         1 SI5      -0.427000
     10 C8          -1.9570     0.8370     0.1110 c6         1 SI5       0.256600
     11 C9          -1.3540    -0.2050     1.0490 c6         1 SI5      -0.103400
     12 C10         -3.4260     0.6590    -0.0530 cc         1 SI5      -0.205300
     13 F2           6.2930     1.2680    -0.2340 f          1 SI5      -0.170000
     14 C11          0.7730    -0.0480    -0.3090 c6         1 SI5       0.204500
     15 C12          0.1670    -0.0780     1.1100 c6         1 SI5      -0.090700
     16 C13          0.8200    -1.1490     1.9640 c6         1 SI5       0.072600
     17 S1           0.6010    -2.8090     1.2690 ss         1 SI5      -0.400200
     18 C14          0.5180    -2.4260    -0.4610 c2         1 SI5       0.706100
     19 N1           0.5990    -1.2910    -1.0200 n2         1 SI5      -0.694900
     20 N2           0.2790    -3.5470    -1.1990 nv         1 SI5      -1.015200
     21 C15         -4.1100    -0.4120    -0.6560 cc         1 SI5       0.269900
     22 N3          -5.4180    -0.2390    -0.6090 nd         1 SI5      -0.531800
     23 N4          -5.5990     0.9190     0.0170 na         1 SI5       0.130800
     24 C16         -4.4360     1.4970     0.3650 cd         1 SI5      -0.159000
     25 C17         -6.9310     1.4300     0.2260 c3         1 SI5       0.074900
     26 H1           2.9030    -1.4380    -1.3000 ha         1 SI5       0.133000
     27 H2           5.2930    -0.9040    -1.2740 ha         1 SI5       0.138000
     28 H3           4.4170     2.7650     0.7670 ha         1 SI5       0.150000
     29 H4           0.3770     0.9660    -2.1690 h1         1 SI5       0.059200
     30 H5           0.2010     2.0150    -0.7540 h1         1 SI5       0.059200
     31 H6          -1.7640     1.8350     0.5350 h1         1 SI5       0.031700
     32 H7          -1.7650    -0.0580     2.0510 hc         1 SI5       0.063700
     33 H8          -1.6590    -1.2030     0.7270 hc         1 SI5       0.063700
     34 H9           0.3950     0.8700     1.6010 hc         1 SI5       0.074700
     35 H10          1.8840    -0.9530     2.0920 h1         1 SI5       0.077700
     36 H11          0.3680    -1.1830     2.9560 h1         1 SI5       0.077700
     37 H12          0.5730    -4.4390    -0.8330 hn         1 SI5       0.475500
     38 H13          0.4180    -3.4460    -2.1920 hn         1 SI5       0.475500
     39 H14         -3.6950    -1.2950    -1.1210 h4         1 SI5       0.047100
     40 H15         -4.4010     2.4440     0.8790 h4         1 SI5       0.150000
     41 H16         -7.4050     1.6690    -0.7250 h1         1 SI5       0.055033
     42 H17         -7.5380     0.6960     0.7520 h1         1 SI5       0.055033
     43 H18         -6.8730     2.3330     0.8260 h1         1 SI5       0.055033
@<TRIPOS>BOND
     1     1     2 ar  
     2     1     6 ar  
     3     1    14 1   
     4     2     3 ar  
     5     2    26 1   
     6     3     4 ar  
     7     3    27 1   
     8     4     5 ar  
     9     4    13 1   
    10     5     6 ar  
    11     5    28 1   
    12     6     7 1   
    13     8     9 1   
    14     8    14 1   
    15     8    29 1   
    16     8    30 1   
    17     9    10 1   
    18    10    11 1   
    19    10    12 1   
    20    10    31 1   
    21    11    15 1   
    22    11    32 1   
    23    11    33 1   
    24    12    21 1   
    25    12    24 2   
    26    14    15 1   
    27    14    19 1   
    28    15    16 1   
    29    15    34 1   
    30    16    17 1   
    31    16    35 1   
    32    16    36 1   
    33    17    18 1   
    34    18    19 2   
    35    18    20 1   
    36    20    37 1   
    37    20    38 1   
    38    21    22 2   
    39    21    39 1   
    40    22    23 1   
    41    23    24 1   
    42    23    25 1   
    43    24    40 1   
    44    25    41 1   
    45    25    42 1   
    46    25    43 1   
@<TRIPOS>SUBSTRUCTURE
     1 SI5         1 TEMP              0 ****  ****    0 ROOT
