@<TRIPOS>MOLECULE
SI5
   43    46     1     0     0
SMALL
No Charge or Current Charge


@<TRIPOS>ATOM
      1 C1           2.3180     0.2960    -0.3160 ca         1 SI5      -0.136300
      2 C2           3.2980    -0.6270    -0.7780 ca         1 SI5      -0.045000
      3 C3           4.6700    -0.3330    -0.7050 ca         1 SI5      -0.170000
      4 C4           5.1000     0.8850    -0.1730 ca         1 SI5       0.201000
      5 C5           4.1660     1.8140     0.2870 ca         1 SI5      -0.202000
      6 C6           2.7950     1.5290     0.2180 ca         1 SI5       0.196000
      7 F1           1.9510     2.4750     0.6820 f          1 SI5      -0.179000
      8 C7           0.0360     1.0640    -1.2310 c6         1 SI5       0.175600
      9 O1          -1.3990     0.8490    -1.2470 os         1 SI5      -0.427000
     10 C8          -2.0150     0.9330     0.0520 c6         1 SI5       0.256600
     11 C9          -1.4210    -0.1540     0.9820 c6         1 SI5      -0.103400
     12 C10         -3.5060     0.7620    -0.0630 cc         1 SI5      -0.205300
     13 F2           6.4200     1.1640    -0.1050 f          1 SI5      -0.170000
     14 C11          0.7830    -0.0380    -0.3890 c6         1 SI5       0.204500
     15 C12          0.1340    -0.0360     1.0460 c6         1 SI5      -0.090700
     16 C13          0.7730    -1.1190     1.9370 c6         1 SI5       0.072600
     17 S1           0.5670    -2.8040     1.2390 ss         1 SI5      -0.400200
     18 C14          0.4890    -2.4630    -0.4970 c2         1 SI5       0.706100
     19 N1           0.5760    -1.3400    -1.0900 n2         1 SI5      -0.694900
     20 N2           0.3330    -3.6130    -1.1760 nv         1 SI5      -1.015200
     21 C15         -4.1320    -0.2430    -0.8120 cc         1 SI5       0.269900
     22 N3          -5.4490    -0.1950    -0.7630 nd         1 SI5      -0.531800
     23 N4          -5.6780     0.9030     0.0600 na         1 SI5       0.130800
     24 C16         -4.4950     1.5080     0.5010 cd         1 SI5      -0.159000
     25 C17         -7.0470     1.3250     0.3890 c3         1 SI5       0.074900
     26 H1           3.0230    -1.5880    -1.2040 ha         1 SI5       0.133000
     27 H2           5.4020    -1.0520    -1.0630 ha         1 SI5       0.138000
     28 H3           4.5030     2.7610     0.6990 ha         1 SI5       0.150000
     29 H4           0.4050     1.0430    -2.2660 h1         1 SI5       0.059200
     30 H5           0.2240     2.0710    -0.8410 h1         1 SI5       0.059200
     31 H6          -1.7930     1.9250     0.4740 h1         1 SI5       0.031700
     32 H7          -1.8470    -0.0450     1.9880 hc         1 SI5       0.063700
     33 H8          -1.7280    -1.1450     0.6230 hc         1 SI5       0.063700
     34 H9           0.3400     0.9230     1.5340 hc         1 SI5       0.074700
     35 H10          1.8510    -0.9280     2.0370 h1         1 SI5       0.077700
     36 H11          0.3370    -1.1020     2.9460 h1         1 SI5       0.077700
     37 H12          0.6960    -4.4150    -0.6790 hn         1 SI5       0.475500
     38 H13          0.6210    -3.5350    -2.1420 hn         1 SI5       0.475500
     39 H14         -3.6560    -1.0190    -1.3980 h4         1 SI5       0.047100
     40 H15         -4.4670     2.3760     1.1500 h4         1 SI5       0.150000
     41 H16         -7.5830     1.5800    -0.5330 h1         1 SI5       0.055033
     42 H17         -7.5690     0.5080     0.9010 h1         1 SI5       0.055033
     43 H18         -7.0170     2.2030     1.0450 h1         1 SI5       0.055033
@<TRIPOS>BOND
     1     1     2 ar  
     2     1     6 ar  
     3     1    14 1   
     4     2     3 ar  
     5     2    26 1   
     6     3     4 ar  
     7     3    27 1   
     8     4     5 ar  
     9     4    13 1   
    10     5     6 ar  
    11     5    28 1   
    12     6     7 1   
    13     8     9 1   
    14     8    14 1   
    15     8    29 1   
    16     8    30 1   
    17     9    10 1   
    18    10    11 1   
    19    10    12 1   
    20    10    31 1   
    21    11    15 1   
    22    11    32 1   
    23    11    33 1   
    24    12    21 1   
    25    12    24 2   
    26    14    15 1   
    27    14    19 1   
    28    15    16 1   
    29    15    34 1   
    30    16    17 1   
    31    16    35 1   
    32    16    36 1   
    33    17    18 1   
    34    18    19 2   
    35    18    20 1   
    36    20    37 1   
    37    20    38 1   
    38    21    22 2   
    39    21    39 1   
    40    22    23 1   
    41    23    24 1   
    42    23    25 1   
    43    24    40 1   
    44    25    41 1   
    45    25    42 1   
    46    25    43 1   
@<TRIPOS>SUBSTRUCTURE
     1 SI5         1 TEMP              0 ****  ****    0 ROOT
