@<TRIPOS>MOLECULE
SI6
   40    43     1     0     0
SMALL
No Charge or Current Charge


@<TRIPOS>ATOM
      1 C1          -4.3540     0.4780    -0.7610 ca         1 SI6      -0.170000
      2 C2          -2.9680     0.6990    -0.8190 ca         1 SI6      -0.045000
      3 C3          -2.0440    -0.2690    -0.3320 ca         1 SI6      -0.135300
      4 C4          -2.5920    -1.4680     0.2100 ca         1 SI6       0.195000
      5 C5          -3.9770    -1.6800     0.2630 ca         1 SI6      -0.201000
      6 C6          -4.8550    -0.7090    -0.2200 ca         1 SI6       0.201000
      7 F1          -6.1880    -0.9170    -0.1670 f          1 SI6      -0.170000
      8 F2          -1.8050    -2.4520     0.6960 f          1 SI6      -0.180000
      9 C7          -0.4920    -0.0170    -0.3880 c6         1 SI6       0.204500
     10 C8           0.2070    -1.1670    -1.2060 c6         1 SI6       0.175600
     11 O1           1.6510    -1.0280    -1.2050 os         1 SI6      -0.427000
     12 C9           2.2450    -1.1280     0.1030 c6         1 SI6       0.255600
     13 C10          1.6960     0.0000     1.0110 c6         1 SI6      -0.103400
     14 C11          0.1360    -0.0350     1.0550 c6         1 SI6      -0.090700
     15 C12         -0.4570     1.0910     1.9250 c6         1 SI6       0.071600
     16 S1          -0.1530     2.7540     1.2100 ss         1 SI6      -0.399200
     17 C13         -0.0700     2.3880    -0.5210 c2         1 SI6       0.705100
     18 N1          -0.2080     1.2640    -1.1020 n2         1 SI6      -0.694900
     19 N2           0.1550     3.5200    -1.2120 nv         1 SI6      -1.014200
     20 C14          3.7440    -1.0380     0.0070 cc         1 SI6      -0.203300
     21 C15          4.6830    -1.8330     0.5910 cd         1 SI6      -0.160000
     22 N3           5.9070    -1.2980     0.1630 na         1 SI6      -0.005200
     23 N4           5.7440    -0.1920    -0.6750 nd         1 SI6      -0.526800
     24 C16          4.4310    -0.0730    -0.7420 cc         1 SI6       0.267900
     25 H1          -5.0420     1.2300    -1.1380 ha         1 SI6       0.139000
     26 H2          -2.6370     1.6380    -1.2520 ha         1 SI6       0.133000
     27 H3          -4.3690    -2.6020     0.6820 ha         1 SI6       0.151000
     28 H4          -0.0400    -2.1580    -0.8070 h1         1 SI6       0.059200
     29 H5          -0.1470    -1.1400    -2.2470 h1         1 SI6       0.059200
     30 H6           1.9640    -2.1010     0.5340 h1         1 SI6       0.032700
     31 H7           2.1020    -0.1170     2.0250 hc         1 SI6       0.063700
     32 H8           2.0600     0.9690     0.6450 hc         1 SI6       0.063700
     33 H9          -0.1260    -0.9760     1.5520 hc         1 SI6       0.074700
     34 H10         -1.5440     0.9580     2.0130 h1         1 SI6       0.077700
     35 H11         -0.0350     1.0640     2.9400 h1         1 SI6       0.077700
     36 H12         -0.1220     3.4330    -2.1800 hn         1 SI6       0.474500
     37 H13         -0.1720     4.3510    -0.7390 hn         1 SI6       0.474500
     38 H14          4.5960    -2.6940     1.2470 h4         1 SI6       0.152000
     39 H15          6.8340    -1.6470     0.4100 hn         1 SI6       0.370000
     40 H16          4.0050     0.7220    -1.3400 h4         1 SI6       0.047100
@<TRIPOS>BOND
     1     1     2 ar  
     2     1     6 ar  
     3     1    25 1   
     4     2     3 ar  
     5     2    26 1   
     6     3     4 ar  
     7     3     9 1   
     8     4     5 ar  
     9     4     8 1   
    10     5     6 ar  
    11     5    27 1   
    12     6     7 1   
    13     9    10 1   
    14     9    14 1   
    15     9    18 1   
    16    10    11 1   
    17    10    28 1   
    18    10    29 1   
    19    11    12 1   
    20    12    13 1   
    21    12    20 1   
    22    12    30 1   
    23    13    14 1   
    24    13    31 1   
    25    13    32 1   
    26    14    15 1   
    27    14    33 1   
    28    15    16 1   
    29    15    34 1   
    30    15    35 1   
    31    16    17 1   
    32    17    18 2   
    33    17    19 1   
    34    19    36 1   
    35    19    37 1   
    36    20    21 2   
    37    20    24 1   
    38    21    22 1   
    39    21    38 1   
    40    22    23 1   
    41    22    39 1   
    42    23    24 2   
    43    24    40 1   
@<TRIPOS>SUBSTRUCTURE
     1 SI6         1 TEMP              0 ****  ****    0 ROOT
