@<TRIPOS>MOLECULE
SI6
   40    43     1     0     0
SMALL
abcg2


@<TRIPOS>ATOM
      1 C1          -4.2830     0.3940    -0.8490 ca         1 SI6      -0.170000
      2 C2          -2.9120     0.6040    -0.8500 ca         1 SI6      -0.045000
      3 C3          -2.0030    -0.2920    -0.2870 ca         1 SI6      -0.135300
      4 C4          -2.5690    -1.4350     0.2750 ca         1 SI6       0.195000
      5 C5          -3.9270    -1.6910     0.3020 ca         1 SI6      -0.201000
      6 C6          -4.7680    -0.7580    -0.2680 ca         1 SI6       0.201000
      7 F1          -6.0870    -0.9870    -0.2520 f          1 SI6      -0.170000
      8 F2          -1.7870    -2.3740     0.8390 f          1 SI6      -0.180000
      9 C7          -0.4980    -0.0120    -0.3150 c6         1 SI6       0.204500
     10 C8           0.1970    -1.1150    -1.1360 c6         1 SI6       0.175600
     11 O1           1.5890    -0.9400    -1.1650 os         1 SI6      -0.427000
     12 C9           2.1720    -1.0610     0.1200 c6         1 SI6       0.255600
     13 C10          1.6300     0.0160     1.0560 c6         1 SI6      -0.103400
     14 C11          0.1030    -0.0080     1.1070 c6         1 SI6      -0.090700
     15 C12         -0.4780     1.1150     1.9460 c6         1 SI6       0.071600
     16 S1          -0.1290     2.7480     1.2380 ss         1 SI6      -0.399200
     17 C13         -0.0860     2.3450    -0.4880 c2         1 SI6       0.705100
     18 N1          -0.2460     1.2130    -1.0360 n2         1 SI6      -0.694900
     19 N2           0.2240     3.4400    -1.2390 nv         1 SI6      -1.014200
     20 C14          3.6500    -0.9700    -0.0370 cc         1 SI6      -0.203300
     21 C15          4.6050    -1.8700     0.3780 cd         1 SI6      -0.160000
     22 N3           5.7950    -1.3500     0.0360 na         1 SI6      -0.005200
     23 N4           5.6940    -0.1780    -0.5800 nd         1 SI6      -0.526800
     24 C16          4.3980     0.0680    -0.6290 cc         1 SI6       0.267900
     25 H1          -4.9530     1.1170    -1.2940 ha         1 SI6       0.139000
     26 H2          -2.5370     1.5040    -1.3130 ha         1 SI6       0.133000
     27 H3          -4.3080    -2.5960     0.7550 ha         1 SI6       0.151000
     28 H4          -0.0480    -2.1090    -0.7430 h1         1 SI6       0.059200
     29 H5          -0.1580    -1.0610    -2.1660 h1         1 SI6       0.059200
     30 H6           1.9190    -2.0460     0.5440 h1         1 SI6       0.032700
     31 H7           2.0230    -0.1610     2.0600 hc         1 SI6       0.063700
     32 H8           2.0060     0.9930     0.7410 hc         1 SI6       0.063700
     33 H9          -0.1900    -0.9320     1.6070 hc         1 SI6       0.074700
     34 H10         -1.5560     1.0010     2.0620 h1         1 SI6       0.077700
     35 H11         -0.0360     1.1230     2.9420 h1         1 SI6       0.077700
     36 H12          0.0760     3.3360    -2.2310 hn         1 SI6       0.474500
     37 H13         -0.0170     4.3510    -0.8840 hn         1 SI6       0.474500
     38 H14          4.5190    -2.8180     0.8840 h4         1 SI6       0.152000
     39 H15          6.7020    -1.7580     0.1940 hn         1 SI6       0.370000
     40 H16          4.0350     0.9750    -1.0900 h4         1 SI6       0.047100
@<TRIPOS>BOND
     1     1     2 ar  
     2     1     6 ar  
     3     1    25 1   
     4     2     3 ar  
     5     2    26 1   
     6     3     4 ar  
     7     3     9 1   
     8     4     5 ar  
     9     4     8 1   
    10     5     6 ar  
    11     5    27 1   
    12     6     7 1   
    13     9    10 1   
    14     9    14 1   
    15     9    18 1   
    16    10    11 1   
    17    10    28 1   
    18    10    29 1   
    19    11    12 1   
    20    12    13 1   
    21    12    20 1   
    22    12    30 1   
    23    13    14 1   
    24    13    31 1   
    25    13    32 1   
    26    14    15 1   
    27    14    33 1   
    28    15    16 1   
    29    15    34 1   
    30    15    35 1   
    31    16    17 1   
    32    17    18 2   
    33    17    19 1   
    34    19    36 1   
    35    19    37 1   
    36    20    21 2   
    37    20    24 1   
    38    21    22 1   
    39    21    38 1   
    40    22    23 1   
    41    22    39 1   
    42    23    24 2   
    43    24    40 1   
@<TRIPOS>SUBSTRUCTURE
     1 SI6         1 TEMP              0 ****  ****    0 ROOT
