@<TRIPOS>MOLECULE
SIC
   23    23     1     0     0
SMALL
No Charge or Current Charge


@<TRIPOS>ATOM
      1 N            3.6610     0.7220    -0.4780 n8         1 SIC      -1.002200
      2 C3           2.7100    -0.2850     0.0840 c5         1 SIC       0.088500
      3 C2           1.3890    -0.5320    -0.7320 c          1 SIC       0.536000
      4 O2           1.2610    -1.0250    -1.8470 o          1 SIC      -0.535000
      5 C4           2.1980     0.1340     1.4890 c5         1 SIC      -0.172400
      6 C5           0.7400     0.5530     1.2790 c          1 SIC       0.582000
      7 O5           0.0600     1.2980     1.9700 o          1 SIC      -0.507000
      8 N1           0.3690    -0.0020     0.0570 n          1 SIC      -0.321400
      9 CA          -1.0380     0.1030    -0.4630 c3         1 SIC      -0.042300
     10 CB          -1.9740    -0.9500     0.1790 c3         1 SIC       0.128600
     11 SG          -1.3590    -2.7020     0.0560 sh         1 SIC      -0.529800
     12 C           -1.6370     1.5390    -0.4210 c          1 SIC       0.732000
     13 O           -1.0380     2.4180    -1.0270 o          1 SIC      -0.711000
     14 HN           3.9290     0.4440    -1.4320 hn         1 SIC       0.412500
     15 HNA          3.1780     1.6180    -0.6240 hn         1 SIC       0.412500
     16 H3           3.2420    -1.2460     0.1450 h1         1 SIC       0.073700
     17 H4           2.1790    -0.7470     2.1400 hc         1 SIC       0.077200
     18 H4A          2.7670     0.9130     2.0070 hc         1 SIC       0.077200
     19 HA          -1.0160    -0.1350    -1.5330 h1         1 SIC       0.072700
     20 HB          -2.1110    -0.7100     1.2420 h1         1 SIC       0.075200
     21 HBA         -2.9600    -0.9000    -0.3030 h1         1 SIC       0.075200
     22 HSG         -2.4100    -3.2710     0.6980 hs         1 SIC       0.189800
     23 OXT         -2.6950     1.7340     0.1620 o          1 SIC      -0.711000
@<TRIPOS>BOND
     1     1     2 1   
     2     1    14 1   
     3     1    15 1   
     4     2     3 1   
     5     2     5 1   
     6     2    16 1   
     7     3     4 2   
     8     3     8 1   
     9     5     6 1   
    10     5    17 1   
    11     5    18 1   
    12     6     7 2   
    13     6     8 1   
    14     8     9 1   
    15     9    10 1   
    16     9    12 1   
    17     9    19 1   
    18    10    11 1   
    19    10    20 1   
    20    10    21 1   
    21    11    22 1   
    22    12    13 1   
    23    12    23 1   
@<TRIPOS>SUBSTRUCTURE
     1 SIC         1 TEMP              0 ****  ****    0 ROOT
