@<TRIPOS>MOLECULE
SIC
   23    23     1     0     0
SMALL
bcc


@<TRIPOS>ATOM
      1 N            3.5820     0.7570    -0.5430 n8         1 SIC      -0.891800
      2 C3           2.6760    -0.2220     0.0200 c5         1 SIC       0.088500
      3 C2           1.3870    -0.3840    -0.7800 c          1 SIC       0.678500
      4 O2           1.3120    -0.6500    -1.9560 o          1 SIC      -0.610500
      5 C4           2.1890     0.1550     1.4150 c5         1 SIC      -0.172400
      6 C5           0.6910     0.2470     1.3090 c          1 SIC       0.724500
      7 O5          -0.0780     0.5920     2.1730 o          1 SIC      -0.582500
      8 N1           0.3130    -0.1450     0.0430 n          1 SIC      -0.455400
      9 CA          -1.0430    -0.0060    -0.4460 c3         1 SIC      -0.042300
     10 CB          -2.0380    -0.8750     0.3090 c3         1 SIC       0.080700
     11 SG          -1.3730    -2.5710     0.4380 sh         1 SIC      -0.481900
     12 C           -1.4520     1.4960    -0.4900 c          1 SIC       0.942600
     13 O           -0.5210     2.3150    -0.5370 o          1 SIC      -0.816300
     14 HN           3.8670     0.4720    -1.4710 hn         1 SIC       0.357300
     15 HNA          3.1140     1.6500    -0.6490 hn         1 SIC       0.357300
     16 H3           3.1840    -1.1890     0.0310 h1         1 SIC       0.073700
     17 H4           2.4520    -0.5870     2.1700 hc         1 SIC       0.077200
     18 H4A          2.5940     1.1120     1.7490 hc         1 SIC       0.077200
     19 HA          -1.0180    -0.3560    -1.4820 h1         1 SIC       0.072700
     20 HB          -2.2480    -0.4840     1.3010 h1         1 SIC       0.075200
     21 HBA         -2.9670    -0.9020    -0.2550 h1         1 SIC       0.075200
     22 HSG         -2.5070    -3.1670     0.8220 hs         1 SIC       0.189800
     23 OXT         -2.6740     1.7140    -0.5220 o          1 SIC      -0.816300
@<TRIPOS>BOND
     1     1     2 1   
     2     1    14 1   
     3     1    15 1   
     4     2     3 1   
     5     2     5 1   
     6     2    16 1   
     7     3     4 2   
     8     3     8 1   
     9     5     6 1   
    10     5    17 1   
    11     5    18 1   
    12     6     7 2   
    13     6     8 1   
    14     8     9 1   
    15     9    10 1   
    16     9    12 1   
    17     9    19 1   
    18    10    11 1   
    19    10    20 1   
    20    10    21 1   
    21    11    22 1   
    22    12    13 1   
    23    12    23 1   
@<TRIPOS>SUBSTRUCTURE
     1 SIC         1 TEMP              0 ****  ****    0 ROOT
