@<TRIPOS>MOLECULE
SID
   47    47     1     0     0
SMALL
bcc


@<TRIPOS>ATOM
      1 C1           1.9910     2.4850     1.1070 c          1 SID       0.932600
      2 O1           0.9050     2.5880     1.6980 o          1 SID      -0.800300
      3 C2           1.9350     1.9290    -0.3570 c6         1 SID       0.212600
      4 O2           1.7220     3.0750    -1.1200 os         1 SID      -0.363600
      5 C3           3.1880     1.1520    -0.7490 c6         1 SID      -0.148400
      6 O3           3.1190     2.8150     1.5160 o          1 SID      -0.800300
      7 C4           3.2910    -0.1430     0.0440 c6         1 SID       0.135100
      8 O4           4.3860    -0.9300    -0.3640 oh         1 SID      -0.607800
      9 C5           2.0260    -0.9660    -0.1650 c6         1 SID       0.073700
     10 N5           2.0330    -2.1440     0.6680 ns         1 SID      -0.558900
     11 C6           0.7890    -0.1130     0.1520 c6         1 SID       0.136100
     12 O6           0.8070     1.1030    -0.5570 os         1 SID      -0.455600
     13 C7          -0.5130    -0.8070    -0.2530 c3         1 SID       0.133100
     14 O7          -0.6190    -0.9090    -1.6510 oh         1 SID      -0.598800
     15 C8          -1.7330    -0.1050     0.3710 c3         1 SID       0.119100
     16 O8          -1.7070    -0.2100     1.7750 oh         1 SID      -0.559800
     17 C9          -3.0310    -0.6600    -0.2030 c3         1 SID      -0.014300
     18 S9          -4.4170     0.0930     0.6950 ss         1 SID      -0.291700
     19 C10          2.1030    -3.4090     0.2120 c          1 SID       0.673100
     20 O10          2.1190    -3.6990    -0.9760 o          1 SID      -0.609100
     21 C11          2.1380    -4.4690     1.2840 c3         1 SID      -0.181100
     22 CA9         -5.7710    -0.2420    -0.3850 c          1 SID       0.591700
     23 OA9         -5.6560    -0.8280    -1.4320 o          1 SID      -0.529100
     24 CM2          1.7530     2.9530    -2.5290 c3         1 SID       0.122700
     25 CM9         -7.0830     0.2500     0.1580 c3         1 SID      -0.187100
     26 H3           3.1620     0.8920    -1.8120 hc         1 SID       0.053700
     27 H3A          4.0710     1.7700    -0.5810 hc         1 SID       0.053700
     28 H4           3.3760     0.1000     1.1140 h1         1 SID       0.057700
     29 HO4          5.1910    -0.4350    -0.1880 ho         1 SID       0.399000
     30 H5           1.9860    -1.2930    -1.2060 h1         1 SID       0.100700
     31 HN5          2.0630    -2.0010     1.6650 hn         1 SID       0.306500
     32 H6           0.7630     0.0730     1.2340 h1         1 SID       0.081700
     33 H7          -0.4940    -1.8340     0.1270 h1         1 SID       0.058700
     34 HO7         -0.4540    -0.0350    -2.0240 ho         1 SID       0.423000
     35 H8          -1.6830     0.9670     0.1560 h1         1 SID       0.124700
     36 HO8         -1.7710    -1.1410     2.0190 ho         1 SID       0.382000
     37 H9          -3.1280    -0.4190    -1.2600 h1         1 SID       0.077700
     38 H9A         -3.0820    -1.7460    -0.0930 h1         1 SID       0.077700
     39 H11          2.1470    -4.0700     2.2970 hc         1 SID       0.051033
     40 H11A         1.2680    -5.1170     1.1790 hc         1 SID       0.051033
     41 H11B         3.0230    -5.0910     1.1510 hc         1 SID       0.051033
     42 HM2          2.7660     2.8120    -2.9140 h1         1 SID       0.013033
     43 HM2A         1.1260     2.1380    -2.8980 h1         1 SID       0.013033
     44 HM2B         1.3670     3.8880    -2.9320 h1         1 SID       0.013033
     45 HM9         -6.9650     1.0000     0.9370 hc         1 SID       0.063033
     46 HM9A        -7.6870     0.6600    -0.6500 hc         1 SID       0.063033
     47 HM9B        -7.6260    -0.5970     0.5830 hc         1 SID       0.063033
@<TRIPOS>BOND
     1     1     2 1   
     2     1     3 1   
     3     1     6 1   
     4     3     4 1   
     5     3     5 1   
     6     3    12 1   
     7     4    24 1   
     8     5     7 1   
     9     5    26 1   
    10     5    27 1   
    11     7     8 1   
    12     7     9 1   
    13     7    28 1   
    14     8    29 1   
    15     9    10 1   
    16     9    11 1   
    17     9    30 1   
    18    10    19 1   
    19    10    31 1   
    20    11    12 1   
    21    11    13 1   
    22    11    32 1   
    23    13    14 1   
    24    13    15 1   
    25    13    33 1   
    26    14    34 1   
    27    15    16 1   
    28    15    17 1   
    29    15    35 1   
    30    16    36 1   
    31    17    18 1   
    32    17    37 1   
    33    17    38 1   
    34    18    22 1   
    35    19    20 2   
    36    19    21 1   
    37    21    39 1   
    38    21    40 1   
    39    21    41 1   
    40    22    23 2   
    41    22    25 1   
    42    24    42 1   
    43    24    43 1   
    44    24    44 1   
    45    25    45 1   
    46    25    46 1   
    47    25    47 1   
@<TRIPOS>SUBSTRUCTURE
     1 SID         1 TEMP              0 ****  ****    0 ROOT
