@<TRIPOS>MOLECULE
SID
   47    47     1     0     0
SMALL
No Charge or Current Charge


@<TRIPOS>ATOM
      1 C1           2.3130     2.6330     1.2020 c          1 SID       0.722000
      2 O1           1.5090     2.2280     2.0350 o          1 SID      -0.695000
      3 C2           2.1950     2.0420    -0.3080 c6         1 SID       0.259000
      4 O2           2.1820     3.1530    -1.2610 os         1 SID      -0.410000
      5 C3           3.4220     1.1180    -0.5950 c6         1 SID      -0.148400
      6 O3           2.6790     3.8010     1.3030 o          1 SID      -0.695000
      7 C4           3.3250    -0.2060     0.1920 c6         1 SID       0.158300
      8 O4           4.4730    -1.0170    -0.1000 oh         1 SID      -0.670000
      9 C5           2.0030    -0.9460    -0.1740 c6         1 SID       0.073700
     10 N5           1.8770    -2.2220     0.5690 ns         1 SID      -0.491900
     11 C6           0.8000    -0.0000     0.1100 c6         1 SID       0.159300
     12 O6           0.9710     1.2800    -0.5790 os         1 SID      -0.502000
     13 C7          -0.5580    -0.5820    -0.4160 c3         1 SID       0.156300
     14 O7          -0.6550    -0.3010    -1.8240 oh         1 SID      -0.721000
     15 C8          -1.8060    -0.0050     0.3220 c3         1 SID       0.142300
     16 O8          -1.7520    -0.3470     1.7200 oh         1 SID      -0.622000
     17 C9          -3.1450    -0.5250    -0.2580 c3         1 SID       0.033600
     18 S9          -4.5930     0.1360     0.6970 ss         1 SID      -0.339600
     19 C10          2.0950    -3.4780     0.0510 c          1 SID       0.606100
     20 O10          2.3410    -3.6760    -1.1300 o          1 SID      -0.609100
     21 C11          1.9830    -4.6100     1.0650 c3         1 SID      -0.181100
     22 CA9         -5.9630    -0.6350    -0.2170 c          1 SID       0.591700
     23 OA9         -5.8020    -1.3710    -1.1800 o          1 SID      -0.529100
     24 CM2          2.1160     2.8890    -2.6780 c3         1 SID       0.145900
     25 CM9         -7.3390    -0.2810     0.3320 c3         1 SID      -0.187100
     26 H3           3.4950     0.8720    -1.6610 hc         1 SID       0.053700
     27 H3A          4.3470     1.6480    -0.3310 hc         1 SID       0.053700
     28 H4           3.3040     0.0240     1.2690 h1         1 SID       0.057700
     29 HO4          5.2620    -0.5130     0.1950 ho         1 SID       0.438000
     30 H5           2.0180    -1.1630    -1.2520 h1         1 SID       0.100700
     31 HN5          1.6870    -2.1810     1.5640 hn         1 SID       0.306500
     32 H6           0.7180     0.1510     1.1940 h1         1 SID       0.081700
     33 H7          -0.5600    -1.6690    -0.2530 h1         1 SID       0.058700
     34 HO7         -0.0920     0.5090    -1.9230 ho         1 SID       0.522000
     35 H8          -1.7890     1.0890     0.2010 h1         1 SID       0.124700
     36 HO8         -2.6310    -0.1200     2.0950 ho         1 SID       0.421000
     37 H9          -3.2410    -0.2130    -1.3060 h1         1 SID       0.077700
     38 H9A         -3.1600    -1.6220    -0.2260 h1         1 SID       0.077700
     39 H11          2.6770    -4.4190     1.8910 hc         1 SID       0.051033
     40 H11A         1.0080    -4.5510     1.5620 hc         1 SID       0.051033
     41 H11B         2.1490    -5.5970     0.6180 hc         1 SID       0.051033
     42 HM2          3.0550     2.4610    -3.0490 h1         1 SID       0.013033
     43 HM2A         1.2930     2.2060    -2.9210 h1         1 SID       0.013033
     44 HM2B         1.9470     3.8260    -3.2240 h1         1 SID       0.013033
     45 HM9         -7.4400     0.8100     0.3560 hc         1 SID       0.063033
     46 HM9A        -8.1530    -0.7540    -0.2280 hc         1 SID       0.063033
     47 HM9B        -7.3720    -0.5390     1.3970 hc         1 SID       0.063033
@<TRIPOS>BOND
     1     1     2 1   
     2     1     3 1   
     3     1     6 1   
     4     3     4 1   
     5     3     5 1   
     6     3    12 1   
     7     4    24 1   
     8     5     7 1   
     9     5    26 1   
    10     5    27 1   
    11     7     8 1   
    12     7     9 1   
    13     7    28 1   
    14     8    29 1   
    15     9    10 1   
    16     9    11 1   
    17     9    30 1   
    18    10    19 1   
    19    10    31 1   
    20    11    12 1   
    21    11    13 1   
    22    11    32 1   
    23    13    14 1   
    24    13    15 1   
    25    13    33 1   
    26    14    34 1   
    27    15    16 1   
    28    15    17 1   
    29    15    35 1   
    30    16    36 1   
    31    17    18 1   
    32    17    37 1   
    33    17    38 1   
    34    18    22 1   
    35    19    20 2   
    36    19    21 1   
    37    21    39 1   
    38    21    40 1   
    39    21    41 1   
    40    22    23 2   
    41    22    25 1   
    42    24    42 1   
    43    24    43 1   
    44    24    44 1   
    45    25    45 1   
    46    25    46 1   
    47    25    47 1   
@<TRIPOS>SUBSTRUCTURE
     1 SID         1 TEMP              0 ****  ****    0 ROOT
