@<TRIPOS>MOLECULE
SIE
   68    70     1     0     0
SMALL
No Charge or Current Charge


@<TRIPOS>ATOM
      1 CS1          5.7150    -4.7060     9.9850 ca         1 SIE      -0.035800
      2 CS2          5.8640    -3.3310    10.2560 ca         1 SIE      -0.082000
      3 CS3          5.3320    -2.7750    11.4330 ca         1 SIE      -0.108500
      4 CS4          4.6450    -3.5890    12.3470 ca         1 SIE       0.116100
      5 CS5          4.5160    -4.9680    12.0990 ca         1 SIE      -0.108500
      6 CS6          5.0480    -5.5220    10.9210 ca         1 SIE      -0.082000
      7 OS7          4.1520    -3.0310    13.4990 os         1 SIE      -0.492800
      8 SS7          2.5380    -3.0560    13.7540 s6         1 SIE       1.399800
      9 OS8          2.2030    -4.1440    14.6680 o          1 SIE      -0.544500
     10 OS9          1.8040    -2.8150    12.5120 o          1 SIE      -0.544500
     11 NS0          2.4740    -1.7080    14.6410 n8         1 SIE      -1.032100
     12 NI1          5.7450    -6.2250     7.8620 na         1 SIE      -0.074700
     13 CI2          6.2750    -5.2760     8.7590 cc         1 SIE      -0.010300
     14 CI3          7.5410    -4.9720     8.2860 cd         1 SIE      -0.215200
     15 CI4          8.9250    -5.7740     6.2520 ca         1 SIE      -0.046000
     16 CI5          8.8710    -6.6360     5.1360 ca         1 SIE      -0.137000
     17 CI6          7.7130    -7.4080     4.8820 ca         1 SIE       0.122100
     18 CI7          6.6020    -7.3500     5.7560 ca         1 SIE      -0.120000
     19 CI8          6.6800    -6.4840     6.8600 ca         1 SIE      -0.035200
     20 CI9          7.8020    -5.7280     7.0870 ca         1 SIE      -0.097800
     21 CP2          3.4670    -5.9490     6.8330 c3         1 SIE      -0.103400
     22 CP3          2.0240    -6.4930     6.7680 c3         1 SIE      -0.071400
     23 CP4          1.1220    -5.6930     5.8030 c3         1 SIE      -0.074400
     24 CP5         -0.3220    -6.2360     5.7370 c3         1 SIE      -0.073400
     25 CP6         -1.2250    -5.4370     4.7710 c3         1 SIE      -0.074400
     26 CP7         -2.6690    -5.9800     4.7050 c3         1 SIE      -0.074400
     27 CP8         -3.5710    -5.1810     3.7400 c3         1 SIE      -0.075400
     28 CP9         -5.0160    -5.7230     3.6730 c3         1 SIE      -0.074400
     29 CP0         -5.9160    -4.9260     2.7100 c3         1 SIE      -0.088100
     30 O27          6.4430    -6.5690     2.3380 o          1 SIE      -0.547000
     31 S27          6.5930    -7.9950     2.6240 s6         1 SIE       1.397800
     32 O28          5.4510    -8.8800     2.8330 o          1 SIE      -0.547000
     33 O29          7.7040    -8.2460     3.7960 os         1 SIE      -0.493800
     34 N20          7.4440    -8.6590     1.4220 n8         1 SIE      -1.031100
     35 HS2          6.3830    -2.6890     9.5480 ha         1 SIE       0.128500
     36 HS3          5.4490    -1.7140    11.6350 ha         1 SIE       0.139000
     37 HS5          4.0190    -5.6120    12.8200 ha         1 SIE       0.139000
     38 HS6          4.9620    -6.5920    10.7510 ha         1 SIE       0.128500
     39 HS01         3.4760    -1.5720    14.7460 hn         1 SIE       0.497500
     40 HS02         2.1950    -2.1220    15.5250 hn         1 SIE       0.497500
     41 HI3          8.2350    -4.2850     8.7630 ha         1 SIE       0.210000
     42 HI4          9.8060    -5.1710     6.4570 ha         1 SIE       0.123000
     43 HI5          9.7220    -6.7050     4.4640 ha         1 SIE       0.134000
     44 HI7          5.7220    -7.9610     5.5810 ha         1 SIE       0.138000
     45 HP11         3.9230    -6.7170     8.8000 h1         1 SIE       0.061700
     46 HP12         4.4000    -7.8010     7.4910 h1         1 SIE       0.061700
     47 HP21         3.9070    -5.9680     5.8290 hc         1 SIE       0.057200
     48 HP22         3.4460    -4.9000     7.1540 hc         1 SIE       0.057200
     49 HP31         2.0490    -7.5430     6.4520 hc         1 SIE       0.039700
     50 HP32         1.5850    -6.4710     7.7740 hc         1 SIE       0.039700
     51 HP41         1.0980    -4.6430     6.1190 hc         1 SIE       0.042200
     52 HP42         1.5620    -5.7160     4.7980 hc         1 SIE       0.042200
     53 HP51        -0.2980    -7.2870     5.4210 hc         1 SIE       0.037700
     54 HP52        -0.7620    -6.2140     6.7420 hc         1 SIE       0.037700
     55 HP61        -0.7850    -5.4590     3.7660 hc         1 SIE       0.038700
     56 HP62        -1.2490    -4.3870     5.0870 hc         1 SIE       0.038700
     57 HP71        -2.6450    -7.0300     4.3890 hc         1 SIE       0.037200
     58 HP72        -3.1080    -5.9580     5.7100 hc         1 SIE       0.037200
     59 HP81        -3.5960    -4.1300     4.0560 hc         1 SIE       0.037700
     60 HP82        -3.1320    -5.2030     2.7340 hc         1 SIE       0.037700
     61 HP91        -4.9960    -6.7730     3.3550 hc         1 SIE       0.036200
     62 HP92        -5.4590    -5.7010     4.6760 hc         1 SIE       0.036200
     63 HP01        -6.9290    -5.3470     2.6970 hc         1 SIE       0.031033
     64 HP02        -5.9850    -3.8770     3.0220 hc         1 SIE       0.031033
     65 HP03        -5.5170    -4.9590     1.6890 hc         1 SIE       0.031033
     66 H201         6.8470    -9.4590     1.2370 hn         1 SIE       0.494500
     67 H202         8.1940    -9.0460     1.9890 hn         1 SIE       0.494500
     68 CP1          4.3670    -6.7490     7.8000 c3         1 SIE       0.069600
@<TRIPOS>BOND
     1     1     2 ar  
     2     1     6 ar  
     3     1    13 1   
     4     2     3 ar  
     5     2    35 1   
     6     3     4 ar  
     7     3    36 1   
     8     4     5 ar  
     9     4     7 1   
    10     5     6 ar  
    11     5    37 1   
    12     6    38 1   
    13     7     8 1   
    14     8     9 2   
    15     8    10 2   
    16     8    11 1   
    17    11    39 1   
    18    11    40 1   
    19    12    13 1   
    20    12    19 1   
    21    12    68 1   
    22    13    14 2   
    23    14    20 1   
    24    14    41 1   
    25    15    16 ar  
    26    15    20 ar  
    27    15    42 1   
    28    16    17 ar  
    29    16    43 1   
    30    17    18 ar  
    31    17    33 1   
    32    18    19 ar  
    33    18    44 1   
    34    19    20 ar  
    35    21    22 1   
    36    21    47 1   
    37    21    48 1   
    38    21    68 1   
    39    22    23 1   
    40    22    49 1   
    41    22    50 1   
    42    23    24 1   
    43    23    51 1   
    44    23    52 1   
    45    24    25 1   
    46    24    53 1   
    47    24    54 1   
    48    25    26 1   
    49    25    55 1   
    50    25    56 1   
    51    26    27 1   
    52    26    57 1   
    53    26    58 1   
    54    27    28 1   
    55    27    59 1   
    56    27    60 1   
    57    28    29 1   
    58    28    61 1   
    59    28    62 1   
    60    29    63 1   
    61    29    64 1   
    62    29    65 1   
    63    30    31 2   
    64    31    32 2   
    65    31    33 1   
    66    31    34 1   
    67    34    66 1   
    68    34    67 1   
    69    45    68 1   
    70    46    68 1   
@<TRIPOS>SUBSTRUCTURE
     1 SIE         1 TEMP              0 ****  ****    0 ROOT
