@<TRIPOS>MOLECULE
SIE
   68    70     1     0     0
SMALL
abcg2


@<TRIPOS>ATOM
      1 CS1          5.5410    -4.7400     9.7080 ca         1 SIE      -0.035800
      2 CS2          5.2660    -3.3770     9.8040 ca         1 SIE      -0.082000
      3 CS3          4.5730    -2.8670    10.8910 ca         1 SIE      -0.108500
      4 CS4          4.1590    -3.7320    11.8900 ca         1 SIE       0.116100
      5 CS5          4.4210    -5.0910    11.8230 ca         1 SIE      -0.108500
      6 CS6          5.1180    -5.5880    10.7340 ca         1 SIE      -0.082000
      7 OS7          3.5150    -3.2180    13.0050 os         1 SIE      -0.492800
      8 SS7          1.8810    -3.1740    12.9580 s6         1 SIE       1.399800
      9 OS8          1.4090    -4.5370    12.9310 o          1 SIE      -0.544500
     10 OS9          1.4990    -2.2540    11.9150 o          1 SIE      -0.544500
     11 NS0          1.5330    -2.5230    14.3910 n8         1 SIE      -1.032100
     12 NI1          5.8680    -6.3010     7.7860 na         1 SIE      -0.074700
     13 CI2          6.3060    -5.2500     8.5660 cc         1 SIE      -0.010300
     14 CI3          7.5290    -4.8250     8.1250 cd         1 SIE      -0.215200
     15 CI4          8.9810    -5.6990     6.1520 ca         1 SIE      -0.046000
     16 CI5          8.9880    -6.6240     5.1280 ca         1 SIE      -0.137000
     17 CI6          7.9010    -7.4910     4.9640 ca         1 SIE       0.122100
     18 CI7          6.7920    -7.4690     5.7830 ca         1 SIE      -0.120000
     19 CI8          6.8040    -6.5360     6.8170 ca         1 SIE      -0.035200
     20 CI9          7.8750    -5.6360     7.0060 ca         1 SIE      -0.097800
     21 CP2          3.6110    -6.0110     6.8150 c3         1 SIE      -0.103400
     22 CP3          2.1650    -6.4860     6.8670 c3         1 SIE      -0.071400
     23 CP4          1.2600    -5.7160     5.9140 c3         1 SIE      -0.074400
     24 CP5         -0.2040    -6.1250     6.0080 c3         1 SIE      -0.073400
     25 CP6         -1.1000    -5.3640     5.0400 c3         1 SIE      -0.074400
     26 CP7         -2.5710    -5.7430     5.1510 c3         1 SIE      -0.074400
     27 CP8         -3.4630    -4.9800     4.1800 c3         1 SIE      -0.075400
     28 CP9         -4.9390    -5.3390     4.3030 c3         1 SIE      -0.074400
     29 CP0         -5.8190    -4.5670     3.3290 c3         1 SIE      -0.088100
     30 O27          8.1220    -6.9430     1.9790 o          1 SIE      -0.547000
     31 S27          7.3360    -8.0310     2.5080 s6         1 SIE       1.397800
     32 O28          5.9110    -7.8770     2.6730 o          1 SIE      -0.547000
     33 O29          7.9650    -8.4470     3.9550 os         1 SIE      -0.493800
     34 N20          7.6240    -9.3600     1.6370 n8         1 SIE      -1.031100
     35 HS2          5.5850    -2.7100     9.0150 ha         1 SIE       0.128500
     36 HS3          4.3650    -1.8080    10.9610 ha         1 SIE       0.139000
     37 HS5          4.1100    -5.7510    12.6210 ha         1 SIE       0.139000
     38 HS6          5.3530    -6.6440    10.6970 ha         1 SIE       0.128500
     39 HS01         1.8060    -1.5530    14.5050 hn         1 SIE       0.497500
     40 HS02         1.7630    -3.0970    15.1940 hn         1 SIE       0.497500
     41 HI3          8.1260    -4.0510     8.5810 ha         1 SIE       0.210000
     42 HI4          9.8200    -5.0290     6.2850 ha         1 SIE       0.123000
     43 HI5          9.8340    -6.6950     4.4570 ha         1 SIE       0.134000
     44 HI7          5.9770    -8.1630     5.6300 ha         1 SIE       0.138000
     45 HP11         4.1060    -6.8210     8.7510 h1         1 SIE       0.061700
     46 HP12         4.5570    -7.8620     7.4300 h1         1 SIE       0.061700
     47 HP21         3.9880    -6.0730     5.7890 hc         1 SIE       0.057200
     48 HP22         3.6590    -4.9560     7.1030 hc         1 SIE       0.057200
     49 HP31         2.1160    -7.5540     6.6320 hc         1 SIE       0.039700
     50 HP32         1.7910    -6.3800     7.8910 hc         1 SIE       0.039700
     51 HP41         1.3500    -4.6440     6.1190 hc         1 SIE       0.042200
     52 HP42         1.6130    -5.8590     4.8860 hc         1 SIE       0.042200
     53 HP51        -0.2960    -7.2000     5.8190 hc         1 SIE       0.037700
     54 HP52        -0.5570    -5.9650     7.0330 hc         1 SIE       0.037700
     55 HP61        -0.7560    -5.5390     4.0140 hc         1 SIE       0.038700
     56 HP62        -0.9900    -4.2880     5.2160 hc         1 SIE       0.038700
     57 HP71        -2.6840    -6.8190     4.9770 hc         1 SIE       0.037200
     58 HP72        -2.9140    -5.5630     6.1760 hc         1 SIE       0.037200
     59 HP81        -3.3390    -3.9040     4.3440 hc         1 SIE       0.037700
     60 HP82        -3.1290    -5.1700     3.1530 hc         1 SIE       0.037700
     61 HP91        -5.0660    -6.4130     4.1380 hc         1 SIE       0.036200
     62 HP92        -5.2730    -5.1480     5.3270 hc         1 SIE       0.036200
     63 HP01        -6.8720    -4.8210     3.4500 hc         1 SIE       0.031033
     64 HP02        -5.7200    -3.4900     3.4770 hc         1 SIE       0.031033
     65 HP03        -5.5450    -4.7810     2.2940 hc         1 SIE       0.031033
     66 H201         7.1070   -10.1830     1.9250 hn         1 SIE       0.494500
     67 H202         8.6030    -9.5530     1.4580 hn         1 SIE       0.494500
     68 CP1          4.5130    -6.8170     7.7410 c3         1 SIE       0.069600
@<TRIPOS>BOND
     1     1     2 ar  
     2     1     6 ar  
     3     1    13 1   
     4     2     3 ar  
     5     2    35 1   
     6     3     4 ar  
     7     3    36 1   
     8     4     5 ar  
     9     4     7 1   
    10     5     6 ar  
    11     5    37 1   
    12     6    38 1   
    13     7     8 1   
    14     8     9 2   
    15     8    10 2   
    16     8    11 1   
    17    11    39 1   
    18    11    40 1   
    19    12    13 1   
    20    12    19 1   
    21    12    68 1   
    22    13    14 2   
    23    14    20 1   
    24    14    41 1   
    25    15    16 ar  
    26    15    20 ar  
    27    15    42 1   
    28    16    17 ar  
    29    16    43 1   
    30    17    18 ar  
    31    17    33 1   
    32    18    19 ar  
    33    18    44 1   
    34    19    20 ar  
    35    21    22 1   
    36    21    47 1   
    37    21    48 1   
    38    21    68 1   
    39    22    23 1   
    40    22    49 1   
    41    22    50 1   
    42    23    24 1   
    43    23    51 1   
    44    23    52 1   
    45    24    25 1   
    46    24    53 1   
    47    24    54 1   
    48    25    26 1   
    49    25    55 1   
    50    25    56 1   
    51    26    27 1   
    52    26    57 1   
    53    26    58 1   
    54    27    28 1   
    55    27    59 1   
    56    27    60 1   
    57    28    29 1   
    58    28    61 1   
    59    28    62 1   
    60    29    63 1   
    61    29    64 1   
    62    29    65 1   
    63    30    31 2   
    64    31    32 2   
    65    31    33 1   
    66    31    34 1   
    67    34    66 1   
    68    34    67 1   
    69    45    68 1   
    70    46    68 1   
@<TRIPOS>SUBSTRUCTURE
     1 SIE         1 TEMP              0 ****  ****    0 ROOT
