@<TRIPOS>MOLECULE
SIF
   24    23     1     0     0
SMALL
bcc


@<TRIPOS>ATOM
      1 C1           0.6660     0.2320    -2.5020 c          1 SIF       0.939600
      2 O1           0.0200    -0.7690    -2.8670 o          1 SIF      -0.865800
      3 O2           1.1640     1.0990    -3.2570 o          1 SIF      -0.865800
      4 C2           0.9160     0.4260    -0.9970 c3         1 SIF      -0.156400
      5 C3           0.0330    -0.4080    -0.0790 c3         1 SIF       0.028100
      6 SI           0.4790    -0.0980     1.7370 s6         1 SIF      -0.693200
      7 C4          -1.4580    -0.1360    -0.2690 c          1 SIF       0.955600
      8 O3          -2.2450    -1.0970    -0.1230 o          1 SIF      -0.857300
      9 O4          -1.7940     1.0470    -0.5040 o          1 SIF      -0.857300
     10 C5          -0.8180    -0.8520     2.8820 c3         1 SIF       0.015367
     11 C6           0.5980     1.7550     2.0840 c3         1 SIF       0.015367
     12 C7           2.1540    -0.8980     2.1070 c3         1 SIF       0.015367
     13 H21          0.8090     1.4900    -0.7700 hc         1 SIF       0.002700
     14 H22          1.9750     0.2000    -0.8130 hc         1 SIF       0.002700
     15 H3           0.2210    -1.4720    -0.2620 h1         1 SIF       0.064700
     16 H51         -0.5150    -0.7680     3.9280 h1         1 SIF       0.028589
     17 H52         -1.7840    -0.3570     2.7730 h1         1 SIF       0.028589
     18 H53         -0.9690    -1.9110     2.6630 h1         1 SIF       0.028589
     19 H61         -0.3280     2.2580     1.8020 h1         1 SIF       0.028589
     20 H62          0.7850     1.9520     3.1420 h1         1 SIF       0.028589
     21 H63          1.4070     2.2150     1.5140 h1         1 SIF       0.028589
     22 H71          2.1230    -1.9760     1.9330 h1         1 SIF       0.028589
     23 H72          2.9440    -0.4860     1.4760 h1         1 SIF       0.028589
     24 H73          2.4500    -0.7420     3.1470 h1         1 SIF       0.028589
@<TRIPOS>BOND
     1     1     2 1   
     2     1     3 1   
     3     1     4 1   
     4     4     5 1   
     5     4    13 1   
     6     4    14 1   
     7     5     6 1   
     8     5     7 1   
     9     5    15 1   
    10     6    10 1   
    11     6    11 1   
    12     6    12 1   
    13     7     8 1   
    14     7     9 1   
    15    10    16 1   
    16    10    17 1   
    17    10    18 1   
    18    11    19 1   
    19    11    20 1   
    20    11    21 1   
    21    12    22 1   
    22    12    23 1   
    23    12    24 1   
@<TRIPOS>SUBSTRUCTURE
     1 SIF         1 TEMP              0 ****  ****    0 ROOT
