@<TRIPOS>MOLECULE
SIF
   24    23     1     0     0
SMALL
No Charge or Current Charge


@<TRIPOS>ATOM
      1 C1           0.7350    -0.0640    -2.4220 c          1 SIF       0.729000
      2 O1           1.2460    -1.1100    -2.7980 o          1 SIF      -0.760500
      3 O2           0.0070     0.6160    -3.1300 o          1 SIF      -0.760500
      4 C2           1.0010     0.3990    -0.9740 c3         1 SIF      -0.156400
      5 C3          -0.0280    -0.2580    -0.0050 c3         1 SIF      -0.082700
      6 SI           0.4830    -0.0530     1.7520 s6         1 SIF      -0.250000
      7 C4          -1.5000     0.1650    -0.3020 c          1 SIF       0.745000
      8 O3          -2.3100    -0.7210    -0.5460 o          1 SIF      -0.752000
      9 O4          -1.8150     1.3480    -0.2420 o          1 SIF      -0.752000
     10 C5          -0.7910    -0.7530     2.8360 c3         1 SIF      -0.095433
     11 C6           0.7020     1.7050     2.1450 c3         1 SIF      -0.095433
     12 C7           2.0460    -0.9280     2.0400 c3         1 SIF      -0.095433
     13 H21          0.8810     1.4850    -0.8790 hc         1 SIF       0.002700
     14 H22          1.9860     0.0400    -0.6510 hc         1 SIF       0.002700
     15 H3           0.0170    -1.3410    -0.1730 h1         1 SIF       0.064700
     16 H51         -0.4200    -0.7390     3.8680 h1         1 SIF       0.028589
     17 H52         -1.6990    -0.1430     2.7500 h1         1 SIF       0.028589
     18 H53         -0.9940    -1.7840     2.5180 h1         1 SIF       0.028589
     19 H61         -0.2490     2.2250     1.9790 h1         1 SIF       0.028589
     20 H62          1.0030     1.7920     3.1970 h1         1 SIF       0.028589
     21 H63          1.4820     2.1170     1.4930 h1         1 SIF       0.028589
     22 H71          2.0320    -1.8690     1.4760 h1         1 SIF       0.028589
     23 H72          2.8730    -0.2930     1.7000 h1         1 SIF       0.028589
     24 H73          2.1420    -1.1320     3.1140 h1         1 SIF       0.028589
@<TRIPOS>BOND
     1     1     2 1   
     2     1     3 1   
     3     1     4 1   
     4     4     5 1   
     5     4    13 1   
     6     4    14 1   
     7     5     6 1   
     8     5     7 1   
     9     5    15 1   
    10     6    10 1   
    11     6    11 1   
    12     6    12 1   
    13     7     8 1   
    14     7     9 1   
    15    10    16 1   
    16    10    17 1   
    17    10    18 1   
    18    11    19 1   
    19    11    20 1   
    20    11    21 1   
    21    12    22 1   
    22    12    23 1   
    23    12    24 1   
@<TRIPOS>SUBSTRUCTURE
     1 SIF         1 TEMP              0 ****  ****    0 ROOT
