@<TRIPOS>MOLECULE
SIG
   77    78     1     0     0
SMALL
abcg2


@<TRIPOS>ATOM
      1 C1           2.1260     0.1030     6.0400 ca         1 SIG       0.141100
      2 C2           1.6960    -0.3790     4.8090 ca         1 SIG       0.035100
      3 C3           0.3370    -0.3230     4.5330 ca         1 SIG       0.184100
      4 C4          -0.6120     0.1870     5.4280 ca         1 SIG      -0.261600
      5 C5          -0.1400     0.6640     6.6720 ca         1 SIG       0.232100
      6 C6           1.2160     0.6190     6.9640 ca         1 SIG      -0.299000
      7 O7          -0.0140    -0.8060     3.3270 os         1 SIG      -0.195200
      8 C8          -1.2920    -0.8010     2.9100 cc         1 SIG       0.129900
      9 C9          -2.2920    -0.3140     3.6720 cd         1 SIG      -0.277400
     10 C10         -2.0170     0.1990     5.0130 c          1 SIG       0.601900
     11 O12          2.5310    -0.8890     3.8770 oh         1 SIG      -0.517100
     12 O13          3.4500     0.0280     6.2420 os         1 SIG      -0.360100
     13 O14         -1.0440     1.1490     7.5320 os         1 SIG      -0.300100
     14 O15         -2.9310     0.6090     5.7180 o          1 SIG      -0.532100
     15 C16         -0.6070     1.6270     8.7890 c3         1 SIG       0.144900
     16 C20         -1.4140    -1.3460     1.5250 c3         1 SIG      -0.034200
     17 C21         -1.3220    -0.2300     0.4760 c3         1 SIG      -0.075400
     18 C22         -1.2520    -0.7330    -0.9720 c3         1 SIG      -0.052700
     19 C23         -1.0490     0.4710    -1.9260 c3         1 SIG      -0.049700
     20 C24         -1.2200     0.2000    -3.4460 c3         1 SIG      -0.047700
     21 C25          0.0150    -0.3850    -4.1670 c3         1 SIG      -0.024500
     22 C26          4.0020     0.5460     7.4400 c3         1 SIG       0.157900
     23 C27         -2.5000    -1.5450    -1.3080 c3         1 SIG      -0.091100
     24 C28          0.2620     1.2110    -1.6410 c3         1 SIG      -0.088100
     25 C29         -0.2510    -0.5040    -5.6380 c2         1 SIG      -0.200200
     26 C30          0.5420    -0.0140    -6.5970 ce         1 SIG      -0.192000
     27 C31          0.2900    -0.1510    -8.0170 ce         1 SIG      -0.177000
     28 C32          1.1110     0.3370    -8.9630 cf         1 SIG      -0.172000
     29 C33         -3.7160    -0.2650     3.2140 c3         1 SIG      -0.025900
     30 C34          0.4380    -1.7600    -3.6410 c3         1 SIG      -0.083100
     31 C35         -1.6710     1.4910    -4.1350 c3         1 SIG      -0.090100
     32 C36          0.9130     0.2470   -10.4050 cf         1 SIG      -0.082200
     33 C37          1.8440     0.7930   -11.2070 c2         1 SIG      -0.205200
     34 C38          1.8760     0.8360   -12.6970 c3         1 SIG      -0.055900
     35 C39         -0.3190    -0.4530   -10.8980 c3         1 SIG      -0.051900
     36 H6           1.5790     0.9840     7.9120 ha         1 SIG       0.126000
     37 HO2          3.4400    -0.8450     4.1960 ho         1 SIG       0.475000
     38 H161        -1.4980     1.9660     9.3110 h1         1 SIG       0.043367
     39 H162        -0.1310     0.8410     9.3820 h1         1 SIG       0.043367
     40 H163         0.0840     2.4670     8.6910 h1         1 SIG       0.043367
     41 H201        -0.6140    -2.0710     1.3590 hc         1 SIG       0.067700
     42 H202        -2.3520    -1.8930     1.4400 hc         1 SIG       0.067700
     43 H211        -2.1790     0.4440     0.5820 hc         1 SIG       0.049700
     44 H212        -0.4360     0.3660     0.7010 hc         1 SIG       0.049700
     45 H22         -0.3840    -1.3960    -1.0410 hc         1 SIG       0.050700
     46 H23         -1.8650     1.1630    -1.6780 hc         1 SIG       0.041700
     47 H24         -2.0320    -0.5220    -3.5780 hc         1 SIG       0.046700
     48 H25          0.8540     0.3080    -4.0420 hc         1 SIG       0.051700
     49 H261         5.0770     0.4080     7.3650 h1         1 SIG       0.045700
     50 H262         3.7880     1.6110     7.5530 h1         1 SIG       0.045700
     51 H263         3.6380     0.0090     8.3190 h1         1 SIG       0.045700
     52 H271        -3.3960    -0.9170    -1.2850 hc         1 SIG       0.033033
     53 H272        -2.4460    -2.0050    -2.2930 hc         1 SIG       0.033033
     54 H273        -2.6500    -2.3590    -0.6000 hc         1 SIG       0.033033
     55 H281         1.1180     0.5340    -1.6210 hc         1 SIG       0.033700
     56 H282         0.4630     1.9700    -2.3970 hc         1 SIG       0.033700
     57 H283         0.2400     1.7300    -0.6830 hc         1 SIG       0.033700
     58 H29         -1.1470    -1.0540    -5.9260 ha         1 SIG       0.166000
     59 H30          1.4380     0.5320    -6.3080 ha         1 SIG       0.168000
     60 H31         -0.6200    -0.6730    -8.3000 ha         1 SIG       0.170000
     61 H32          2.0120     0.8520    -8.6390 ha         1 SIG       0.167000
     62 H331        -4.1130     0.7470     3.3100 hc         1 SIG       0.044700
     63 H332        -3.8340    -0.5600     2.1750 hc         1 SIG       0.044700
     64 H333        -4.3510    -0.9130     3.8200 hc         1 SIG       0.044700
     65 H341        -0.4010    -2.4580    -3.6490 hc         1 SIG       0.034700
     66 H342         1.2280    -2.1800    -4.2640 hc         1 SIG       0.034700
     67 H343         0.8230    -1.7130    -2.6230 hc         1 SIG       0.034700
     68 H351        -0.8850     2.2490    -4.1420 hc         1 SIG       0.034033
     69 H352        -1.9510     1.3160    -5.1740 hc         1 SIG       0.034033
     70 H353        -2.5400     1.9160    -3.6300 hc         1 SIG       0.034033
     71 H37          2.6940     1.2670   -10.7230 ha         1 SIG       0.164000
     72 H381         2.7660     0.3300   -13.0770 hc         1 SIG       0.040367
     73 H382         1.0080     0.3780   -13.1670 hc         1 SIG       0.040367
     74 H383         1.9390     1.8690   -13.0500 hc         1 SIG       0.040367
     75 H391        -0.4120    -0.4260   -11.9810 hc         1 SIG       0.040033
     76 H392        -0.3230    -1.5020   -10.5940 hc         1 SIG       0.040033
     77 H393        -1.2200    -0.0010   -10.4790 hc         1 SIG       0.040033
@<TRIPOS>BOND
     1     1     2 ar  
     2     1     6 ar  
     3     1    12 1   
     4     2     3 ar  
     5     2    11 1   
     6     3     4 ar  
     7     3     7 1   
     8     4     5 ar  
     9     4    10 1   
    10     5     6 ar  
    11     5    13 1   
    12     6    36 1   
    13     7     8 1   
    14     8     9 2   
    15     8    16 1   
    16     9    10 1   
    17     9    29 1   
    18    10    14 2   
    19    11    37 1   
    20    12    22 1   
    21    13    15 1   
    22    15    38 1   
    23    15    39 1   
    24    15    40 1   
    25    16    17 1   
    26    16    41 1   
    27    16    42 1   
    28    17    18 1   
    29    17    43 1   
    30    17    44 1   
    31    18    19 1   
    32    18    23 1   
    33    18    45 1   
    34    19    20 1   
    35    19    24 1   
    36    19    46 1   
    37    20    21 1   
    38    20    31 1   
    39    20    47 1   
    40    21    25 1   
    41    21    30 1   
    42    21    48 1   
    43    22    49 1   
    44    22    50 1   
    45    22    51 1   
    46    23    52 1   
    47    23    53 1   
    48    23    54 1   
    49    24    55 1   
    50    24    56 1   
    51    24    57 1   
    52    25    26 2   
    53    25    58 1   
    54    26    27 1   
    55    26    59 1   
    56    27    28 2   
    57    27    60 1   
    58    28    32 1   
    59    28    61 1   
    60    29    62 1   
    61    29    63 1   
    62    29    64 1   
    63    30    65 1   
    64    30    66 1   
    65    30    67 1   
    66    31    68 1   
    67    31    69 1   
    68    31    70 1   
    69    32    33 2   
    70    32    35 1   
    71    33    34 1   
    72    33    71 1   
    73    34    72 1   
    74    34    73 1   
    75    34    74 1   
    76    35    75 1   
    77    35    76 1   
    78    35    77 1   
@<TRIPOS>SUBSTRUCTURE
     1 SIG         1 TEMP              0 ****  ****    0 ROOT
