@<TRIPOS>MOLECULE
SIG
   77    78     1     0     0
SMALL
No Charge or Current Charge


@<TRIPOS>ATOM
      1 C1           2.1360    -0.0440     5.8930 ca         1 SIG       0.141100
      2 C2           1.5940    -0.7680     4.8160 ca         1 SIG       0.035100
      3 C3           0.1990    -0.7730     4.5970 ca         1 SIG       0.184100
      4 C4          -0.6540    -0.0890     5.4770 ca         1 SIG      -0.261600
      5 C5          -0.1120     0.6470     6.5560 ca         1 SIG       0.232100
      6 C6           1.2850     0.6660     6.7580 ca         1 SIG      -0.299000
      7 O7          -0.2830    -1.5490     3.5560 os         1 SIG      -0.195200
      8 C8          -1.4720    -1.1290     2.9880 cc         1 SIG       0.129900
      9 C9          -2.4480    -0.6120     3.8270 cd         1 SIG      -0.277400
     10 C10         -2.1100    -0.1650     5.1930 c          1 SIG       0.601900
     11 O12          2.4430    -1.4610     3.9860 oh         1 SIG      -0.517100
     12 O13          3.5100    -0.0630     6.0570 os         1 SIG      -0.360100
     13 O14         -0.9580     1.3550     7.3890 os         1 SIG      -0.300100
     14 O15         -2.9700     0.1460     6.0080 o          1 SIG      -0.532100
     15 C16         -0.4910     2.1310     8.5060 c3         1 SIG       0.144900
     16 C20         -1.6400    -1.5530     1.5490 c3         1 SIG      -0.034200
     17 C21         -1.4820    -0.3660     0.5650 c3         1 SIG      -0.075400
     18 C22         -1.3870    -0.7380    -0.9520 c3         1 SIG      -0.052700
     19 C23         -1.1380     0.5390    -1.8570 c3         1 SIG      -0.049700
     20 C24         -1.1580     0.3290    -3.4280 c3         1 SIG      -0.047700
     21 C25          0.1350    -0.2870    -4.0800 c3         1 SIG      -0.024500
     22 C26          4.1720     0.6410     7.1250 c3         1 SIG       0.157900
     23 C27         -2.6360    -1.5520    -1.3980 c3         1 SIG      -0.091100
     24 C28          0.1130     1.3570    -1.4170 c3         1 SIG      -0.088100
     25 C29         -0.0520    -0.4840    -5.5760 c2         1 SIG      -0.200200
     26 C30          0.6750     0.1090    -6.5460 ce         1 SIG      -0.192000
     27 C31          0.4460    -0.1190    -7.9760 ce         1 SIG      -0.177000
     28 C32          1.1680     0.4720    -8.9700 cf         1 SIG      -0.172000
     29 C33         -3.8990    -0.4050     3.4200 c3         1 SIG      -0.025900
     30 C34          0.6200    -1.6220    -3.4730 c3         1 SIG      -0.083100
     31 C35         -1.5390     1.6580    -4.1470 c3         1 SIG      -0.090100
     32 C36          0.9950     0.2920   -10.4130 cf         1 SIG      -0.082200
     33 C37          1.8000     0.9560   -11.2800 c2         1 SIG      -0.205200
     34 C38          1.7710     0.8960   -12.7950 c3         1 SIG      -0.055900
     35 C39         -0.1080    -0.6530   -10.8820 c3         1 SIG      -0.051900
     36 H6           1.7070     1.2280     7.5820 ha         1 SIG       0.126000
     37 HO2          3.3560    -1.3170     4.3210 ho         1 SIG       0.475000
     38 H161        -1.3380     2.6010     9.0220 h1         1 SIG       0.043367
     39 H162         0.0360     1.4960     9.2300 h1         1 SIG       0.043367
     40 H163         0.1860     2.9280     8.1730 h1         1 SIG       0.043367
     41 H201        -0.8950    -2.3190     1.3030 hc         1 SIG       0.067700
     42 H202        -2.6180    -2.0300     1.4250 hc         1 SIG       0.067700
     43 H211        -2.3070     0.3400     0.7170 hc         1 SIG       0.049700
     44 H212        -0.5670     0.1540     0.8670 hc         1 SIG       0.049700
     45 H22         -0.5260    -1.4060    -1.0390 hc         1 SIG       0.050700
     46 H23         -1.9970     1.1880    -1.6400 hc         1 SIG       0.041700
     47 H24         -1.9840    -0.3430    -3.6720 hc         1 SIG       0.046700
     48 H25          0.9510     0.4320    -3.9340 hc         1 SIG       0.051700
     49 H261         5.2570     0.4880     7.0660 h1         1 SIG       0.045700
     50 H262         3.9770     1.7190     7.0610 h1         1 SIG       0.045700
     51 H263         3.8310     0.2770     8.1020 h1         1 SIG       0.045700
     52 H271        -3.5340    -0.9230    -1.3980 hc         1 SIG       0.033033
     53 H272        -2.5060    -1.9770    -2.3990 hc         1 SIG       0.033033
     54 H273        -2.8190    -2.4100    -0.7440 hc         1 SIG       0.033033
     55 H281         0.9970     0.7130    -1.3410 hc         1 SIG       0.033700
     56 H282         0.3430     2.1610    -2.1240 hc         1 SIG       0.033700
     57 H283        -0.0470     1.8400    -0.4460 hc         1 SIG       0.033700
     58 H29         -0.8570    -1.1740    -5.8370 ha         1 SIG       0.166000
     59 H30          1.4790     0.7990    -6.2810 ha         1 SIG       0.168000
     60 H31         -0.3590    -0.8100    -8.2320 ha         1 SIG       0.170000
     61 H32          1.9630     1.1560    -8.6650 ha         1 SIG       0.167000
     62 H331        -4.2680     0.5790     3.7350 hc         1 SIG       0.044700
     63 H332        -4.0450    -0.4570     2.3360 hc         1 SIG       0.044700
     64 H333        -4.5450    -1.1640     3.8760 hc         1 SIG       0.044700
     65 H341        -0.2050    -2.3370    -3.3760 hc         1 SIG       0.034700
     66 H342         1.3870    -2.0750    -4.1130 hc         1 SIG       0.034700
     67 H343         1.0830    -1.4650    -2.4930 hc         1 SIG       0.034700
     68 H351        -0.7170     2.3840    -4.1190 hc         1 SIG       0.034033
     69 H352        -1.7890     1.4810    -5.1990 hc         1 SIG       0.034033
     70 H353        -2.4190     2.1200    -3.6850 hc         1 SIG       0.034033
     71 H37          2.5720     1.6190   -10.8860 ha         1 SIG       0.164000
     72 H381         1.9490    -0.1240   -13.1560 hc         1 SIG       0.040367
     73 H382         0.8030     1.2310   -13.1870 hc         1 SIG       0.040367
     74 H383         2.5440     1.5410   -13.2300 hc         1 SIG       0.040367
     75 H391        -0.1730    -0.7290   -11.9730 hc         1 SIG       0.040033
     76 H392         0.0570    -1.6680   -10.5020 hc         1 SIG       0.040033
     77 H393        -1.0900    -0.3180   -10.5280 hc         1 SIG       0.040033
@<TRIPOS>BOND
     1     1     2 ar  
     2     1     6 ar  
     3     1    12 1   
     4     2     3 ar  
     5     2    11 1   
     6     3     4 ar  
     7     3     7 1   
     8     4     5 ar  
     9     4    10 1   
    10     5     6 ar  
    11     5    13 1   
    12     6    36 1   
    13     7     8 1   
    14     8     9 2   
    15     8    16 1   
    16     9    10 1   
    17     9    29 1   
    18    10    14 2   
    19    11    37 1   
    20    12    22 1   
    21    13    15 1   
    22    15    38 1   
    23    15    39 1   
    24    15    40 1   
    25    16    17 1   
    26    16    41 1   
    27    16    42 1   
    28    17    18 1   
    29    17    43 1   
    30    17    44 1   
    31    18    19 1   
    32    18    23 1   
    33    18    45 1   
    34    19    20 1   
    35    19    24 1   
    36    19    46 1   
    37    20    21 1   
    38    20    31 1   
    39    20    47 1   
    40    21    25 1   
    41    21    30 1   
    42    21    48 1   
    43    22    49 1   
    44    22    50 1   
    45    22    51 1   
    46    23    52 1   
    47    23    53 1   
    48    23    54 1   
    49    24    55 1   
    50    24    56 1   
    51    24    57 1   
    52    25    26 2   
    53    25    58 1   
    54    26    27 1   
    55    26    59 1   
    56    27    28 2   
    57    27    60 1   
    58    28    32 1   
    59    28    61 1   
    60    29    62 1   
    61    29    63 1   
    62    29    64 1   
    63    30    65 1   
    64    30    66 1   
    65    30    67 1   
    66    31    68 1   
    67    31    69 1   
    68    31    70 1   
    69    32    33 2   
    70    32    35 1   
    71    33    34 1   
    72    33    71 1   
    73    34    72 1   
    74    34    73 1   
    75    34    74 1   
    76    35    75 1   
    77    35    76 1   
    78    35    77 1   
@<TRIPOS>SUBSTRUCTURE
     1 SIG         1 TEMP              0 ****  ****    0 ROOT
