@<TRIPOS>MOLECULE
SII
   70    74     1     0     0
SMALL
abcg2


@<TRIPOS>ATOM
      1 C1          -5.4790    -0.6940    -0.0500 ca         1 SII      -0.154000
      2 C2          -5.2680    -2.0710    -0.0840 ca         1 SII      -0.017000
      3 C3          -4.1030    -2.5850     0.4960 ca         1 SII      -0.154000
      4 C8          -7.3320    -2.7930    -1.2820 c          1 SII       0.608100
      5 C9          -7.9770    -4.0440    -1.8230 c3         1 SII      -0.182100
      6 C10          0.7950     3.4740    -1.2990 ca         1 SII      -0.149000
      7 C11          1.4320     3.1070    -0.1190 ca         1 SII       0.012000
      8 C12          1.3510     3.9270     1.0000 ca         1 SII      -0.122000
      9 C13          0.6090     5.0970     0.9480 ca         1 SII      -0.083000
     10 C14         -0.0460     5.4700    -0.2170 ca         1 SII      -0.151000
     11 C15          0.0660     4.6460    -1.3210 ca         1 SII       0.175000
     12 C16          0.5410     0.0680    -0.5330 c6         1 SII      -0.072900
     13 C19         -0.0260     0.9170     2.1640 c6         1 SII       0.163300
     14 C20         -0.8150     0.5670    -0.0570 c6         1 SII       0.163300
     15 C21          2.9910    -0.1720    -0.0200 c2         1 SII       0.662200
     16 C22          3.4720     1.8610    -0.5460 c          1 SII       0.699400
     17 C24          3.8570    -3.6790    -0.5290 c6         1 SII      -0.089900
     18 C27          6.4440    -3.1350     0.7740 c6         1 SII      -0.071400
     19 F1          -0.5570     4.9940    -2.4570 f          1 SII      -0.177000
     20 N1          -6.1390    -2.9970    -0.6690 ns         1 SII      -0.147000
     21 O1          -7.8540    -1.6990    -1.4080 o          1 SII      -0.581100
     22 N2          -1.0130     0.2440     1.3430 n3         1 SII      -0.725600
     23 O2           4.0930     2.8230    -0.9550 o          1 SII      -0.517000
     24 N3           2.1820     1.9120    -0.0760 n          1 SII      -0.299400
     25 C4          -3.1750    -1.7480     1.0850 ca         1 SII      -0.070500
     26 N4           3.9530     0.5680    -0.4830 ne         1 SII      -0.713100
     27 C5          -3.3750    -0.3700     1.1240 ca         1 SII      -0.118300
     28 C6          -4.5320     0.1320     0.5470 ca         1 SII      -0.070500
     29 C17          1.7150     0.5880     0.3110 c5         1 SII       0.041100
     30 C18          1.3800     0.4540     1.8050 c6         1 SII      -0.072900
     31 C23          5.0860    -4.5360    -0.8140 c6         1 SII      -0.071400
     32 C25          4.2630    -2.2650    -0.1280 c6         1 SII       0.232500
     33 C26          5.2150    -2.2790     1.0660 c6         1 SII      -0.089900
     34 C28          6.0480    -4.5510     0.3690 c6         1 SII      -0.078400
     35 H1          -6.3590    -0.2560    -0.4890 ha         1 SII       0.128500
     36 H3          -3.9220    -3.6540     0.4780 ha         1 SII       0.128500
     37 H7          -2.4020     0.3900     2.8630 h1         1 SII       0.040700
     38 H7A         -2.6460     1.5860     1.5990 h1         1 SII       0.040700
     39 H9          -7.4600    -4.9630    -1.5530 hc         1 SII       0.063700
     40 H9A         -9.0040    -4.1060    -1.4630 hc         1 SII       0.063700
     41 H9B         -8.0180    -3.9820    -2.9100 hc         1 SII       0.063700
     42 H10          0.8600     2.8510    -2.1820 ha         1 SII       0.139000
     43 H12          1.8650     3.6440     1.9090 ha         1 SII       0.125000
     44 H13          0.5400     5.7310     1.8230 ha         1 SII       0.119000
     45 H14         -0.6280     6.3810    -0.2670 ha         1 SII       0.133000
     46 H16          0.5270    -1.0230    -0.4720 hc         1 SII       0.057450
     47 H16A         0.6960     0.3230    -1.5830 hc         1 SII       0.057450
     48 H19         -0.1090     2.0110     2.0880 h1         1 SII       0.043950
     49 H19A        -0.2070     0.6660     3.2110 h1         1 SII       0.043950
     50 H20         -0.9290     1.6470    -0.2410 h1         1 SII       0.043950
     51 H20A        -1.5830     0.0690    -0.6520 h1         1 SII       0.043950
     52 H24A         3.2760    -4.1320     0.2820 hc         1 SII       0.046450
     53 H27          7.0240    -2.6750    -0.0340 hc         1 SII       0.046200
     54 H27A         7.0960    -3.1540     1.6490 hc         1 SII       0.046200
     55 HN1         -5.8220    -3.9540    -0.6250 hn         1 SII       0.149000
     56 H4          -2.2750    -2.1720     1.5120 ha         1 SII       0.118000
     57 H6          -4.7100     1.2010     0.5500 ha         1 SII       0.118000
     58 H18          2.1200     0.9940     2.3980 hc         1 SII       0.057450
     59 H18A         1.4580    -0.6000     2.0870 hc         1 SII       0.057450
     60 H23          4.7740    -5.5520    -1.0650 hc         1 SII       0.046200
     61 H23A         5.6010    -4.1440    -1.6970 hc         1 SII       0.046200
     62 H25          4.7700    -1.7920    -0.9740 h1         1 SII       0.090700
     63 H26          4.6860    -2.6790     1.9380 hc         1 SII       0.046450
     64 H26A         5.5090    -1.2560     1.3120 hc         1 SII       0.046450
     65 H28          6.9360    -5.1380     0.1240 hc         1 SII       0.041700
     66 H28A         5.5690    -5.0500     1.2190 hc         1 SII       0.041700
     67 C7          -2.3640     0.5340     1.7780 c3         1 SII       0.220100
     68 N5           3.0710    -1.4790     0.1470 nu         1 SII      -0.871400
     69 H24          3.2060    -3.6430    -1.4060 hc         1 SII       0.046450
     70 HN5          2.2850    -1.9600     0.5580 hn         1 SII       0.497000
@<TRIPOS>BOND
     1     1     2 ar  
     2     1    28 ar  
     3     1    35 1   
     4     2     3 ar  
     5     2    20 1   
     6     3    25 ar  
     7     3    36 1   
     8     4     5 1   
     9     4    20 1   
    10     4    21 2   
    11     5    39 1   
    12     5    40 1   
    13     5    41 1   
    14     6     7 ar  
    15     6    11 ar  
    16     6    42 1   
    17     7     8 ar  
    18     7    24 1   
    19     8     9 ar  
    20     8    43 1   
    21     9    10 ar  
    22     9    44 1   
    23    10    11 ar  
    24    10    45 1   
    25    11    19 1   
    26    12    14 1   
    27    12    29 1   
    28    12    46 1   
    29    12    47 1   
    30    13    22 1   
    31    13    30 1   
    32    13    48 1   
    33    13    49 1   
    34    14    22 1   
    35    14    50 1   
    36    14    51 1   
    37    15    26 2   
    38    15    29 1   
    39    15    68 1   
    40    16    23 2   
    41    16    24 1   
    42    16    26 1   
    43    17    31 1   
    44    17    32 1   
    45    17    52 1   
    46    17    69 1   
    47    18    33 1   
    48    18    34 1   
    49    18    53 1   
    50    18    54 1   
    51    20    55 1   
    52    22    67 1   
    53    24    29 1   
    54    25    27 ar  
    55    25    56 1   
    56    27    28 ar  
    57    27    67 1   
    58    28    57 1   
    59    29    30 1   
    60    30    58 1   
    61    30    59 1   
    62    31    34 1   
    63    31    60 1   
    64    31    61 1   
    65    32    33 1   
    66    32    62 1   
    67    32    68 1   
    68    33    63 1   
    69    33    64 1   
    70    34    65 1   
    71    34    66 1   
    72    37    67 1   
    73    38    67 1   
    74    68    70 1   
@<TRIPOS>SUBSTRUCTURE
     1 SII         1 TEMP              0 ****  ****    0 ROOT
