@<TRIPOS>MOLECULE
SII
   70    74     1     0     0
SMALL
No Charge or Current Charge


@<TRIPOS>ATOM
      1 C1          -5.4470    -0.5430    -0.2870 ca         1 SII      -0.154000
      2 C2          -5.5290    -1.9340    -0.0620 ca         1 SII      -0.017000
      3 C3          -4.5840    -2.5410     0.7870 ca         1 SII      -0.154000
      4 C8          -7.5840    -2.5110    -1.5010 c          1 SII       0.608100
      5 C9          -8.3930    -3.7490    -1.8780 c3         1 SII      -0.182100
      6 C10          0.4730     3.3700    -1.1890 ca         1 SII      -0.149000
      7 C11          1.2630     2.9800    -0.0920 ca         1 SII       0.012000
      8 C12          1.3730     3.8340     1.0210 ca         1 SII      -0.122000
      9 C13          0.6210     5.0210     1.0820 ca         1 SII      -0.083000
     10 C14         -0.2140     5.3760     0.0090 ca         1 SII      -0.151000
     11 C15         -0.2770     4.5530    -1.1270 ca         1 SII       0.175000
     12 C16          0.5250    -0.1460    -0.5830 c6         1 SII      -0.072900
     13 C19          0.0100     0.7910     2.1560 c6         1 SII       0.163300
     14 C20         -0.8600     0.3380    -0.0880 c6         1 SII       0.163300
     15 C21          3.0470    -0.2110    -0.1480 c2         1 SII       0.662200
     16 C22          3.4030     1.8570    -0.6960 c          1 SII       0.699400
     17 C24          4.2330    -3.7540    -0.5450 c6         1 SII      -0.089900
     18 C27          6.7870    -2.9190     0.7590 c6         1 SII      -0.071400
     19 F1          -1.0570     4.9090    -2.1710 f          1 SII      -0.177000
     20 N1          -6.5190    -2.7720    -0.6480 ns         1 SII      -0.147000
     21 O1          -7.8790    -1.4020    -1.9320 o          1 SII      -0.581100
     22 N2          -1.0380     0.0920     1.3690 n3         1 SII      -0.725600
     23 O2           3.9740     2.8520    -1.1090 o          1 SII      -0.517000
     24 N3           2.0980     1.8250    -0.1890 n          1 SII      -0.299400
     25 C4          -3.5760    -1.7780     1.4010 ca         1 SII      -0.070500
     26 N4           3.9220     0.5810    -0.6470 ne         1 SII      -0.713100
     27 C5          -3.4970    -0.3920     1.1760 ca         1 SII      -0.118300
     28 C6          -4.4380     0.2200     0.3280 ca         1 SII      -0.070500
     29 C17          1.7160     0.4510     0.2300 c5         1 SII       0.041100
     30 C18          1.4290     0.3210     1.7580 c6         1 SII      -0.072900
     31 C23          5.5430    -4.5530    -0.7640 c6         1 SII      -0.071400
     32 C25          4.5290    -2.2620    -0.2500 c6         1 SII       0.232500
     33 C26          5.4750    -2.1230     0.9720 c6         1 SII      -0.089900
     34 C28          6.4950    -4.4080     0.4490 c6         1 SII      -0.078400
     35 H1          -6.1510    -0.0310    -0.9340 ha         1 SII       0.128500
     36 H3          -4.6270    -3.6120     0.9730 ha         1 SII       0.128500
     37 H7          -2.4670     0.2630     2.9260 h1         1 SII       0.040700
     38 H7A         -2.5990     1.5010     1.6780 h1         1 SII       0.040700
     39 H9          -8.7340    -4.2450    -0.9630 hc         1 SII       0.063700
     40 H9A         -9.2270    -3.5200    -2.5500 hc         1 SII       0.063700
     41 H9B         -7.7190    -4.4970    -2.3100 hc         1 SII       0.063700
     42 H10          0.4320     2.7520    -2.0810 ha         1 SII       0.139000
     43 H12          2.0330     3.5700     1.8440 ha         1 SII       0.125000
     44 H13          0.6930     5.6670     1.9550 ha         1 SII       0.119000
     45 H14         -0.7960     6.2930     0.0470 ha         1 SII       0.133000
     46 H16          0.5420    -1.2410    -0.5100 hc         1 SII       0.057450
     47 H16A         0.6410     0.0880    -1.6490 hc         1 SII       0.057450
     48 H19         -0.0760     1.8780     2.0210 h1         1 SII       0.043950
     49 H19A        -0.1300     0.5960     3.2290 h1         1 SII       0.043950
     50 H20         -0.9860     1.4060    -0.3100 h1         1 SII       0.043950
     51 H20A        -1.6290    -0.1950    -0.6670 h1         1 SII       0.043950
     52 H24A         3.6710    -4.1990     0.2880 hc         1 SII       0.046450
     53 H27          7.3600    -2.4740    -0.0670 hc         1 SII       0.046200
     54 H27A         7.4200    -2.8410     1.6540 hc         1 SII       0.046200
     55 HN1         -6.4280    -3.7470    -0.3940 hn         1 SII       0.149000
     56 H4          -2.8500    -2.2630     2.0500 ha         1 SII       0.118000
     57 H6          -4.3880     1.2910     0.1420 ha         1 SII       0.118000
     58 H18          2.1800     0.8800     2.3320 hc         1 SII       0.057450
     59 H18A         1.5340    -0.7290     2.0640 hc         1 SII       0.057450
     60 H23          5.3100    -5.6130    -0.9300 hc         1 SII       0.046200
     61 H23A         6.0460    -4.1970    -1.6740 hc         1 SII       0.046200
     62 H25          5.0260    -1.8330    -1.1360 h1         1 SII       0.090700
     63 H26          4.9700    -2.4830     1.8790 hc         1 SII       0.046450
     64 H26A         5.7110    -1.0640     1.1450 hc         1 SII       0.046450
     65 H28          7.4360    -4.9390     0.2500 hc         1 SII       0.041700
     66 H28A         6.0470    -4.8880     1.3310 hc         1 SII       0.041700
     67 C7          -2.4000     0.4320     1.8430 c3         1 SII       0.220100
     68 N5           3.2670    -1.5630     0.0190 nu         1 SII      -0.871400
     69 H24          3.5970    -3.8390    -1.4360 hc         1 SII       0.046450
     70 HN5          2.4970    -2.0880     0.4250 hn         1 SII       0.497000
@<TRIPOS>BOND
     1     1     2 ar  
     2     1    28 ar  
     3     1    35 1   
     4     2     3 ar  
     5     2    20 1   
     6     3    25 ar  
     7     3    36 1   
     8     4     5 1   
     9     4    20 1   
    10     4    21 2   
    11     5    39 1   
    12     5    40 1   
    13     5    41 1   
    14     6     7 ar  
    15     6    11 ar  
    16     6    42 1   
    17     7     8 ar  
    18     7    24 1   
    19     8     9 ar  
    20     8    43 1   
    21     9    10 ar  
    22     9    44 1   
    23    10    11 ar  
    24    10    45 1   
    25    11    19 1   
    26    12    14 1   
    27    12    29 1   
    28    12    46 1   
    29    12    47 1   
    30    13    22 1   
    31    13    30 1   
    32    13    48 1   
    33    13    49 1   
    34    14    22 1   
    35    14    50 1   
    36    14    51 1   
    37    15    26 2   
    38    15    29 1   
    39    15    68 1   
    40    16    23 2   
    41    16    24 1   
    42    16    26 1   
    43    17    31 1   
    44    17    32 1   
    45    17    52 1   
    46    17    69 1   
    47    18    33 1   
    48    18    34 1   
    49    18    53 1   
    50    18    54 1   
    51    20    55 1   
    52    22    67 1   
    53    24    29 1   
    54    25    27 ar  
    55    25    56 1   
    56    27    28 ar  
    57    27    67 1   
    58    28    57 1   
    59    29    30 1   
    60    30    58 1   
    61    30    59 1   
    62    31    34 1   
    63    31    60 1   
    64    31    61 1   
    65    32    33 1   
    66    32    62 1   
    67    32    68 1   
    68    33    63 1   
    69    33    64 1   
    70    34    65 1   
    71    34    66 1   
    72    37    67 1   
    73    38    67 1   
    74    68    70 1   
@<TRIPOS>SUBSTRUCTURE
     1 SII         1 TEMP              0 ****  ****    0 ROOT
