@<TRIPOS>MOLECULE
SIJ
   40    43     1     0     0
SMALL
No Charge or Current Charge


@<TRIPOS>ATOM
      1 C12          3.9500    -1.3580     1.6740 cc         1 SIJ       0.395700
      2 N3           2.6730    -1.1660     1.3030 nd         1 SIJ      -0.557100
      3 N4           4.8080    -0.6170     0.8700 na         1 SIJ      -0.413300
      4 C13          4.0650     0.0700    -0.0380 ca         1 SIJ       0.120500
      5 N5           4.4190     0.9270    -1.0080 nb         1 SIJ      -0.226000
      6 C            3.3980     1.4450    -1.7250 ca         1 SIJ       0.184900
      7 C11          2.7590    -0.2710     0.2220 ca         1 SIJ      -0.090600
      8 C1           1.7390     0.3160    -0.5830 ca         1 SIJ       0.453900
      9 N            2.0810     1.1860    -1.5610 nb         1 SIJ      -0.311000
     10 N1           0.3470     0.0700    -0.4470 nh         1 SIJ      -0.744300
     11 C10         -0.6070     1.2120    -0.3280 c6         1 SIJ       0.214800
     12 C9          -1.9950     0.8390    -0.8990 c6         1 SIJ      -0.092400
     13 C4          -2.5950    -0.4270    -0.2080 c6         1 SIJ       0.182200
     14 C3          -1.5510    -1.5700    -0.3550 c6         1 SIJ      -0.092400
     15 C2          -0.1550    -1.1790     0.1920 c6         1 SIJ       0.214800
     16 N2          -2.8610    -0.1960     1.2400 n7         1 SIJ      -0.858400
     17 C8          -3.9480     0.7740     1.5330 c6         1 SIJ       0.155800
     18 C7          -5.2760     0.3420     0.8720 c6         1 SIJ      -0.113400
     19 C6          -5.0940     0.1170    -0.6460 c6         1 SIJ      -0.072400
     20 C5          -3.9250    -0.8660    -0.9040 c6         1 SIJ      -0.102400
     21 H12          4.3020    -1.9910     2.4810 h5         1 SIJ       0.064800
     22 H4           5.8150    -0.5950     0.9550 hn         1 SIJ       0.368000
     23 H            3.6630     2.1440    -2.5160 h5         1 SIJ       0.044100
     24 H101        -0.7150     1.5060     0.7270 h1         1 SIJ       0.076700
     25 H102        -0.2400     2.0970    -0.8690 h1         1 SIJ       0.076700
     26 H21C         0.5300    -2.0170    -0.0090 h1         1 SIJ       0.076700
     27 H22C        -0.2090    -1.0550     1.2840 h1         1 SIJ       0.076700
     28 H91C        -2.6640     1.7030    -0.8080 hc         1 SIJ       0.050700
     29 H92C        -1.8930     0.6550    -1.9770 hc         1 SIJ       0.050700
     30 H31C        -1.9010    -2.4750     0.1590 hc         1 SIJ       0.050700
     31 H32C        -1.4490    -1.8420    -1.4140 hc         1 SIJ       0.050700
     32 H2          -3.1320    -1.0950     1.6520 hn         1 SIJ       0.406000
     33 H51C        -3.7690    -0.9750    -1.9860 hc         1 SIJ       0.043700
     34 H52C        -4.2170    -1.8620    -0.5420 hc         1 SIJ       0.043700
     35 H81C        -4.0890     0.8460     2.6220 h1         1 SIJ       0.050200
     36 H82C        -3.6670     1.7770     1.1790 h1         1 SIJ       0.050200
     37 H71C        -5.6370    -0.5830     1.3420 hc         1 SIJ       0.042700
     38 H72C        -6.0460     1.1040     1.0500 hc         1 SIJ       0.042700
     39 H61C        -6.0210    -0.2820    -1.0800 hc         1 SIJ       0.042200
     40 H62C        -4.9060     1.0750    -1.1490 hc         1 SIJ       0.042200
@<TRIPOS>BOND
     1     1     2 2   
     2     1     3 1   
     3     1    21 1   
     4     2     7 1   
     5     3     4 1   
     6     3    22 1   
     7     4     5 ar  
     8     4     7 ar  
     9     5     6 ar  
    10     6     9 ar  
    11     6    23 1   
    12     7     8 ar  
    13     8     9 ar  
    14     8    10 1   
    15    10    11 1   
    16    10    15 1   
    17    11    12 1   
    18    11    24 1   
    19    11    25 1   
    20    12    13 1   
    21    12    28 1   
    22    12    29 1   
    23    13    14 1   
    24    13    16 1   
    25    13    20 1   
    26    14    15 1   
    27    14    30 1   
    28    14    31 1   
    29    15    26 1   
    30    15    27 1   
    31    16    17 1   
    32    16    32 1   
    33    17    18 1   
    34    17    35 1   
    35    17    36 1   
    36    18    19 1   
    37    18    37 1   
    38    18    38 1   
    39    19    20 1   
    40    19    39 1   
    41    19    40 1   
    42    20    33 1   
    43    20    34 1   
@<TRIPOS>SUBSTRUCTURE
     1 SIJ         1 TEMP              0 ****  ****    0 ROOT
