@<TRIPOS>MOLECULE
SIJ
   40    43     1     0     0
SMALL
bcc


@<TRIPOS>ATOM
      1 C12          3.8330    -2.0350     0.5090 cc         1 SIJ       0.395700
      2 N3           2.6550    -1.5780     0.8150 nd         1 SIJ      -0.557100
      3 N4           4.5050    -1.2320    -0.3560 na         1 SIJ      -0.363000
      4 C13          3.6970    -0.1740    -0.6270 ca         1 SIJ       0.448800
      5 N5           3.9580     0.8620    -1.4230 nb         1 SIJ      -0.752000
      6 C            2.9470     1.7110    -1.4460 ca         1 SIJ       0.710900
      7 C11          2.5370    -0.4010     0.1120 ca         1 SIJ      -0.221200
      8 C1           1.5230     0.5880    -0.0010 ca         1 SIJ       0.782200
      9 N            1.7900     1.6290    -0.8040 nb         1 SIJ      -0.837000
     10 N1           0.3480     0.5760     0.6490 nh         1 SIJ      -0.744300
     11 C10         -0.6890     1.5560     0.3620 c6         1 SIJ       0.214800
     12 C9          -1.7630     0.9480    -0.5300 c6         1 SIJ      -0.092400
     13 C4          -2.3830    -0.3170     0.0870 c6         1 SIJ       0.182200
     14 C3          -1.2430    -1.2660     0.4760 c6         1 SIJ      -0.092400
     15 C2          -0.1810    -0.5920     1.3360 c6         1 SIJ       0.214800
     16 N2          -3.1020     0.0420     1.3130 n7         1 SIJ      -0.803200
     17 C8          -4.3560     0.7490     1.1010 c6         1 SIJ       0.155800
     18 C7          -5.3010     0.0530     0.1260 c6         1 SIJ      -0.113400
     19 C6          -4.5850    -0.2370    -1.1880 c6         1 SIJ      -0.072400
     20 C5          -3.3000    -1.0180    -0.9280 c6         1 SIJ      -0.102400
     21 H12          4.2630    -2.9510     0.8830 h5         1 SIJ       0.064800
     22 H4           5.4310    -1.3910    -0.7220 hn         1 SIJ       0.317700
     23 H            3.0720     2.5900    -2.0700 h5         1 SIJ       0.044100
     24 H101        -1.1290     1.8590     1.3150 h1         1 SIJ       0.076700
     25 H102        -0.2490     2.4330    -0.1010 h1         1 SIJ       0.076700
     26 H21C         0.6180    -1.2860     1.5730 h1         1 SIJ       0.076700
     27 H22C        -0.6210    -0.2570     2.2780 h1         1 SIJ       0.076700
     28 H91C        -2.5240     1.7060    -0.7280 hc         1 SIJ       0.050700
     29 H92C        -1.3240     0.6910    -1.5000 hc         1 SIJ       0.050700
     30 H31C        -1.6470    -2.1300     1.0140 hc         1 SIJ       0.050700
     31 H32C        -0.7760    -1.6550    -0.4340 hc         1 SIJ       0.050700
     32 H2          -3.2990    -0.8100     1.8270 hn         1 SIJ       0.350800
     33 H51C        -2.7550    -1.1910    -1.8610 hc         1 SIJ       0.043700
     34 H52C        -3.5600    -2.0070    -0.5320 hc         1 SIJ       0.043700
     35 H81C        -4.8370     0.8750     2.0740 h1         1 SIJ       0.050200
     36 H82C        -4.1420     1.7590     0.7390 h1         1 SIJ       0.050200
     37 H71C        -5.6460    -0.8880     0.5680 hc         1 SIJ       0.042700
     38 H72C        -6.1890     0.6680    -0.0410 hc         1 SIJ       0.042700
     39 H61C        -5.2330    -0.8010    -1.8630 hc         1 SIJ       0.042200
     40 H62C        -4.3550     0.7050    -1.6970 hc         1 SIJ       0.042200
@<TRIPOS>BOND
     1     1     2 2   
     2     1     3 1   
     3     1    21 1   
     4     2     7 1   
     5     3     4 1   
     6     3    22 1   
     7     4     5 ar  
     8     4     7 ar  
     9     5     6 ar  
    10     6     9 ar  
    11     6    23 1   
    12     7     8 ar  
    13     8     9 ar  
    14     8    10 1   
    15    10    11 1   
    16    10    15 1   
    17    11    12 1   
    18    11    24 1   
    19    11    25 1   
    20    12    13 1   
    21    12    28 1   
    22    12    29 1   
    23    13    14 1   
    24    13    16 1   
    25    13    20 1   
    26    14    15 1   
    27    14    30 1   
    28    14    31 1   
    29    15    26 1   
    30    15    27 1   
    31    16    17 1   
    32    16    32 1   
    33    17    18 1   
    34    17    35 1   
    35    17    36 1   
    36    18    19 1   
    37    18    37 1   
    38    18    38 1   
    39    19    20 1   
    40    19    39 1   
    41    19    40 1   
    42    20    33 1   
    43    20    34 1   
@<TRIPOS>SUBSTRUCTURE
     1 SIJ         1 TEMP              0 ****  ****    0 ROOT
