@<TRIPOS>MOLECULE
SIL
   40    40     1     0     0
SMALL
abcg2


@<TRIPOS>ATOM
      1 C1          -3.5450    -6.0360     1.4500 c2         1 SIL      -0.346000
      2 C2          -2.6830    -5.1250     1.8880 c2         1 SIL      -0.196200
      3 C5          -1.6000    -4.5000     1.0680 c3         1 SIL      -0.053200
      4 C7          -0.2040    -4.8320     1.5970 c3         1 SIL      -0.071400
      5 C10          0.9030    -4.1490     0.8040 c3         1 SIL      -0.035400
      6 C13          2.2900    -4.4320     1.3690 c3         1 SIL      -0.448400
      7 P16          3.6790    -3.8010     0.3600 p5         1 SIL       1.401400
      8 O20          3.6220    -4.4010    -1.0180 o          1 SIL      -0.816500
      9 O21          3.2610    -2.2120     0.1230 os         1 SIL      -0.575400
     10 C23          3.3170    -1.3010     1.1920 c3         1 SIL       0.223600
     11 C24          2.6460    -0.0120     0.7770 c5         1 SIL       0.133300
     12 C27          2.6490     1.0390     1.8890 c5         1 SIL       0.118600
     13 O28          3.3300     0.6240    -0.2880 os         1 SIL      -0.446000
     14 C30          3.6880     1.9410     0.0920 c5         1 SIL       0.388000
     15 O31          2.8680     2.2460     1.1960 os         1 SIL      -0.479000
     16 C34          5.1650     1.9960     0.4690 c3         1 SIL      -0.104100
     17 C38          3.3640     2.8960    -1.0400 c3         1 SIL      -0.104100
     18 O1           4.9460    -3.8620     1.1720 o          1 SIL      -0.816500
     19 H11         -4.3000    -6.4630     2.0980 ha         1 SIL       0.153500
     20 H12         -3.5270    -6.3910     0.4260 ha         1 SIL       0.153500
     21 H2          -2.7400    -4.8040     2.9250 ha         1 SIL       0.156000
     22 H51         -1.6890    -4.8190     0.0260 hc         1 SIL       0.042700
     23 H52         -1.7250    -3.4110     1.0750 hc         1 SIL       0.042700
     24 H71         -0.0590    -5.9170     1.5740 hc         1 SIL       0.029700
     25 H72         -0.1340    -4.5370     2.6490 hc         1 SIL       0.029700
     26 H101         0.8580    -4.4750    -0.2390 hc         1 SIL       0.039700
     27 H102         0.7250    -3.0700     0.7940 hc         1 SIL       0.039700
     28 H131         2.3670    -4.0400     2.3880 hc         1 SIL       0.043200
     29 H132         2.4420    -5.5130     1.4590 hc         1 SIL       0.043200
     30 H231         2.7900    -1.6770     2.0810 h1         1 SIL       0.015700
     31 H232         4.3520    -1.1000     1.4940 h1         1 SIL       0.015700
     32 H24          1.6190    -0.2310     0.4560 h1         1 SIL       0.064700
     33 H271         1.6990     1.0970     2.4190 h1         1 SIL       0.047700
     34 H272         3.4390     0.8440     2.6270 h1         1 SIL       0.047700
     35 H341         5.7840     1.6980    -0.3760 hc         1 SIL       0.043533
     36 H342         5.4490     3.0100     0.7530 hc         1 SIL       0.043533
     37 H343         5.3990     1.3320     1.3030 hc         1 SIL       0.043533
     38 H381         3.9400     2.6370    -1.9290 hc         1 SIL       0.043533
     39 H382         2.3040     2.8570    -1.2920 hc         1 SIL       0.043533
     40 H383         3.6190     3.9200    -0.7660 hc         1 SIL       0.043533
@<TRIPOS>BOND
     1     1     2 2   
     2     1    19 1   
     3     1    20 1   
     4     2     3 1   
     5     2    21 1   
     6     3     4 1   
     7     3    22 1   
     8     3    23 1   
     9     4     5 1   
    10     4    24 1   
    11     4    25 1   
    12     5     6 1   
    13     5    26 1   
    14     5    27 1   
    15     6     7 1   
    16     6    28 1   
    17     6    29 1   
    18     7     8 1   
    19     7     9 1   
    20     7    18 1   
    21     9    10 1   
    22    10    11 1   
    23    10    30 1   
    24    10    31 1   
    25    11    12 1   
    26    11    13 1   
    27    11    32 1   
    28    12    15 1   
    29    12    33 1   
    30    12    34 1   
    31    13    14 1   
    32    14    15 1   
    33    14    16 1   
    34    14    17 1   
    35    16    35 1   
    36    16    36 1   
    37    16    37 1   
    38    17    38 1   
    39    17    39 1   
    40    17    40 1   
@<TRIPOS>SUBSTRUCTURE
     1 SIL         1 TEMP              0 ****  ****    0 ROOT
