@<TRIPOS>MOLECULE
SIL
   40    40     1     0     0
SMALL
No Charge or Current Charge


@<TRIPOS>ATOM
      1 C1          -3.5460    -4.7110     1.7020 c2         1 SIL      -0.346000
      2 C2          -2.5750    -3.8170     1.4610 c2         1 SIL      -0.196200
      3 C5          -1.3530    -4.0650     0.6010 c3         1 SIL      -0.053200
      4 C7          -0.0410    -3.9740     1.4080 c3         1 SIL      -0.071400
      5 C10          1.2190    -4.2200     0.5510 c3         1 SIL      -0.035400
      6 C13          2.5280    -4.1240     1.3700 c3         1 SIL      -0.448400
      7 P16          4.0780    -4.2020     0.3790 p5         1 SIL       1.401400
      8 O20          3.9850    -5.3220    -0.6060 o          1 SIL      -0.816500
      9 O21          4.0560    -2.7670    -0.3660 os         1 SIL      -0.575400
     10 C23          4.2400    -1.5390     0.3620 c3         1 SIL       0.223600
     11 C24          2.8690    -0.8190     0.5570 c5         1 SIL       0.133300
     12 C27          2.6260    -0.2420     1.9920 c5         1 SIL       0.118600
     13 O28          2.7680     0.3560    -0.2940 os         1 SIL      -0.446000
     14 C30          2.9790     1.5090     0.5380 c5         1 SIL       0.388000
     15 O31          2.3140     1.1500     1.7570 os         1 SIL      -0.479000
     16 C34          4.4900     1.7880     0.7730 c3         1 SIL      -0.104100
     17 C38          2.2840     2.7300    -0.0940 c3         1 SIL      -0.104100
     18 O1           5.2610    -4.3360     1.2810 o          1 SIL      -0.816500
     19 H11         -4.4020    -4.4650     2.3320 ha         1 SIL       0.153500
     20 H12         -3.5190    -5.7170     1.2820 ha         1 SIL       0.153500
     21 H2          -2.6270    -2.8140     1.8930 ha         1 SIL       0.156000
     22 H51         -1.4130    -5.0540     0.1300 hc         1 SIL       0.042700
     23 H52         -1.3240    -3.3330    -0.2160 hc         1 SIL       0.042700
     24 H71         -0.0710    -4.7060     2.2250 hc         1 SIL       0.029700
     25 H72          0.0270    -2.9810     1.8700 hc         1 SIL       0.029700
     26 H101         1.1530    -5.2140     0.0900 hc         1 SIL       0.039700
     27 H102         1.2400    -3.4960    -0.2730 hc         1 SIL       0.039700
     28 H131         2.5490    -3.2090     1.9670 hc         1 SIL       0.043200
     29 H132         2.5760    -4.9620     2.0750 hc         1 SIL       0.043200
     30 H231         4.6890    -1.7350     1.3440 h1         1 SIL       0.015700
     31 H232         4.9280    -0.8820    -0.1850 h1         1 SIL       0.015700
     32 H24          2.0590    -1.5020     0.2810 h1         1 SIL       0.064700
     33 H271         1.7870    -0.7290     2.5060 h1         1 SIL       0.047700
     34 H272         3.5180    -0.3120     2.6300 h1         1 SIL       0.047700
     35 H341         5.0190     1.8830    -0.1830 hc         1 SIL       0.043533
     36 H342         4.6290     2.7280     1.3190 hc         1 SIL       0.043533
     37 H343         4.9880     1.0040     1.3530 hc         1 SIL       0.043533
     38 H381         2.7430     2.9900    -1.0550 hc         1 SIL       0.043533
     39 H382         1.2210     2.5280    -0.2730 hc         1 SIL       0.043533
     40 H383         2.3540     3.6070     0.5600 hc         1 SIL       0.043533
@<TRIPOS>BOND
     1     1     2 2   
     2     1    19 1   
     3     1    20 1   
     4     2     3 1   
     5     2    21 1   
     6     3     4 1   
     7     3    22 1   
     8     3    23 1   
     9     4     5 1   
    10     4    24 1   
    11     4    25 1   
    12     5     6 1   
    13     5    26 1   
    14     5    27 1   
    15     6     7 1   
    16     6    28 1   
    17     6    29 1   
    18     7     8 1   
    19     7     9 1   
    20     7    18 1   
    21     9    10 1   
    22    10    11 1   
    23    10    30 1   
    24    10    31 1   
    25    11    12 1   
    26    11    13 1   
    27    11    32 1   
    28    12    15 1   
    29    12    33 1   
    30    12    34 1   
    31    13    14 1   
    32    14    15 1   
    33    14    16 1   
    34    14    17 1   
    35    16    35 1   
    36    16    36 1   
    37    16    37 1   
    38    17    38 1   
    39    17    39 1   
    40    17    40 1   
@<TRIPOS>SUBSTRUCTURE
     1 SIL         1 TEMP              0 ****  ****    0 ROOT
