@<TRIPOS>MOLECULE
SIN
   12    11     1     0     0
SMALL
No Charge or Current Charge


@<TRIPOS>ATOM
      1 C1         -29.0400   -83.4930    58.4540 c          1 SIN       0.699000
      2 O1         -29.8260   -84.4280    58.4540 o          1 SIN      -0.782000
      3 O2         -29.1300   -82.5440    57.6900 o          1 SIN      -0.782000
      4 C2         -27.8460   -83.5370    59.4320 c3         1 SIN      -0.169400
      5 C3         -26.6220   -84.2520    58.7850 c3         1 SIN      -0.169400
      6 C4         -25.4280   -84.2960    59.7630 c          1 SIN       0.699000
      7 O3         -25.3380   -85.2450    60.5270 o          1 SIN      -0.782000
      8 O4         -24.6420   -83.3610    59.7630 o          1 SIN      -0.782000
      9 H21        -27.5080   -82.5200    59.6660 hc         1 SIN       0.016950
     10 H22        -28.1020   -84.1290    60.3190 hc         1 SIN       0.016950
     11 H31        -26.9600   -85.2690    58.5510 hc         1 SIN       0.016950
     12 H32        -26.3660   -83.6600    57.8980 hc         1 SIN       0.016950
@<TRIPOS>BOND
     1     1     2 1   
     2     1     3 1   
     3     1     4 1   
     4     4     5 1   
     5     4     9 1   
     6     4    10 1   
     7     5     6 1   
     8     5    11 1   
     9     5    12 1   
    10     6     7 1   
    11     6     8 1   
@<TRIPOS>SUBSTRUCTURE
     1 SIN         1 TEMP              0 ****  ****    0 ROOT
