@<TRIPOS>MOLECULE
SIN
   12    11     1     0     0
SMALL
abcg2


@<TRIPOS>ATOM
      1 C1         -29.0090   -83.4410    58.4010 c          1 SIN       0.699000
      2 O1         -30.0290   -84.0760    58.7830 o          1 SIN      -0.782000
      3 O2         -28.8780   -82.8710    57.2830 o          1 SIN      -0.782000
      4 C2         -27.8070   -83.3760    59.3570 c3         1 SIN      -0.169400
      5 C3         -26.7180   -84.3650    58.9400 c3         1 SIN      -0.169400
      6 C4         -25.4280   -84.3570    59.7860 c          1 SIN       0.699000
      7 O3         -24.5800   -85.2450    59.4970 o          1 SIN      -0.782000
      8 O4         -25.3010   -83.4830    60.6800 o          1 SIN      -0.782000
      9 H21        -27.3940   -82.3660    59.3450 hc         1 SIN       0.016950
     10 H22        -28.1330   -83.5960    60.3750 hc         1 SIN       0.016950
     11 H31        -27.1100   -85.3860    58.9500 hc         1 SIN       0.016950
     12 H32        -26.4210   -84.1690    57.9040 hc         1 SIN       0.016950
@<TRIPOS>BOND
     1     1     2 1   
     2     1     3 1   
     3     1     4 1   
     4     4     5 1   
     5     4     9 1   
     6     4    10 1   
     7     5     6 1   
     8     5    11 1   
     9     5    12 1   
    10     6     7 1   
    11     6     8 1   
@<TRIPOS>SUBSTRUCTURE
     1 SIN         1 TEMP              0 ****  ****    0 ROOT
