@<TRIPOS>MOLECULE
SIO
   52    52     1     0     0
SMALL
No Charge or Current Charge


@<TRIPOS>ATOM
      1 OA4          4.9820     0.7980     1.0970 o          1 SIO      -0.481000
      2 CA4          4.8510    -0.1630     0.3510 c          1 SIO       0.590100
      3 CM4          6.0000    -1.0660    -0.0770 c3         1 SIO      -0.158100
      4 O4           3.6620    -0.5690    -0.1900 os         1 SIO      -0.460100
      5 C4           2.4410     0.1640     0.0520 c6         1 SIO       0.169300
      6 C5           1.2040    -0.7110    -0.2980 c6         1 SIO       0.073700
      7 N5           1.2010    -1.9680     0.4880 ns         1 SIO      -0.498900
      8 C10          1.6920    -3.1810     0.0620 c          1 SIO       0.602100
      9 O10          2.1210    -3.3620    -1.0680 o          1 SIO      -0.609100
     10 C11          1.6420    -4.2880     1.1060 c3         1 SIO      -0.182100
     11 C3           2.4170     1.4650    -0.7880 c6         1 SIO      -0.128400
     12 C2           1.1070     2.2760    -0.5360 c6         1 SIO       0.268000
     13 O2           0.9880     3.3450    -1.5280 os         1 SIO      -0.400000
     14 CM2          0.9560     3.0250    -2.9340 c3         1 SIO       0.145900
     15 C1           1.1670     2.9280     0.9510 c          1 SIO       0.729000
     16 O1           0.4160     2.4650     1.8030 o          1 SIO      -0.694000
     17 O3           1.4050     4.1320     1.0110 o          1 SIO      -0.694000
     18 O6          -0.0360     1.3880    -0.7800 os         1 SIO      -0.518000
     19 C6          -0.0860     0.1220    -0.0460 c6         1 SIO       0.165300
     20 C7          -1.3770    -0.6060    -0.5570 c3         1 SIO       0.149300
     21 O7          -1.5040    -0.3600    -1.9680 oh         1 SIO      -0.721000
     22 C8          -2.6760    -0.1460     0.1730 c3         1 SIO       0.131300
     23 O8          -2.5900    -0.4510     1.5800 oh         1 SIO      -0.622000
     24 C9          -3.9580    -0.8040    -0.4000 c3         1 SIO       0.129600
     25 O9          -5.0630    -0.4730     0.4690 os         1 SIO      -0.428100
     26 CA9         -6.3060    -0.9440     0.1370 c          1 SIO       0.592100
     27 OA9         -6.5510    -1.6300    -0.8460 o          1 SIO      -0.509000
     28 CM9         -7.3580    -0.5090     1.1470 c3         1 SIO      -0.156100
     29 HM4          5.7460    -2.1020     0.1730 hc         1 SIO       0.059367
     30 HM4A         6.0370    -1.0950    -1.1710 hc         1 SIO       0.059367
     31 HM4B         6.9590    -0.7640     0.3570 hc         1 SIO       0.059367
     32 H4           2.3900     0.4130     1.1240 h1         1 SIO       0.112700
     33 H5           1.2490    -0.9630    -1.3680 h1         1 SIO       0.099700
     34 HN5          0.8680    -1.9380     1.4450 hn         1 SIO       0.312500
     35 H11          2.1810    -3.9580     2.0020 hc         1 SIO       0.052367
     36 H11A         0.6150    -4.3860     1.4760 hc         1 SIO       0.052367
     37 H11B         2.0290    -5.2420     0.7310 hc         1 SIO       0.052367
     38 H3           3.2830     2.0950    -0.5470 hc         1 SIO       0.051700
     39 H3A          2.5190     1.1840    -1.8420 hc         1 SIO       0.051700
     40 HM2          0.2050     2.2560    -3.1530 h1         1 SIO       0.013367
     41 HM2A         0.7000     3.9200    -3.5130 h1         1 SIO       0.013367
     42 HM2B         1.9340     2.6770    -3.2870 h1         1 SIO       0.013367
     43 H6          -0.1890     0.3010     1.0320 h1         1 SIO       0.086700
     44 H7          -1.2680    -1.6840    -0.3750 h1         1 SIO       0.059700
     45 HO7         -1.0210     0.5000    -2.0800 ho         1 SIO       0.522000
     46 H8          -2.7730     0.9400     0.0330 h1         1 SIO       0.116700
     47 HO8         -3.5150    -0.4260     1.9120 ho         1 SIO       0.422000
     48 H9          -4.1380    -0.4320    -1.4170 h1         1 SIO       0.053700
     49 H9A         -3.8190    -1.8920    -0.4530 h1         1 SIO       0.053700
     50 HM9         -7.0430    -0.8300     2.1460 hc         1 SIO       0.065700
     51 HM9A        -7.3320     0.5830     1.2360 hc         1 SIO       0.065700
     52 HM9B        -8.3600    -0.8740     0.8980 hc         1 SIO       0.065700
@<TRIPOS>BOND
     1     1     2 2   
     2     2     3 1   
     3     2     4 1   
     4     3    29 1   
     5     3    30 1   
     6     3    31 1   
     7     4     5 1   
     8     5     6 1   
     9     5    11 1   
    10     5    32 1   
    11     6     7 1   
    12     6    19 1   
    13     6    33 1   
    14     7     8 1   
    15     7    34 1   
    16     8     9 2   
    17     8    10 1   
    18    10    35 1   
    19    10    36 1   
    20    10    37 1   
    21    11    12 1   
    22    11    38 1   
    23    11    39 1   
    24    12    13 1   
    25    12    15 1   
    26    12    18 1   
    27    13    14 1   
    28    14    40 1   
    29    14    41 1   
    30    14    42 1   
    31    15    16 1   
    32    15    17 1   
    33    18    19 1   
    34    19    20 1   
    35    19    43 1   
    36    20    21 1   
    37    20    22 1   
    38    20    44 1   
    39    21    45 1   
    40    22    23 1   
    41    22    24 1   
    42    22    46 1   
    43    23    47 1   
    44    24    25 1   
    45    24    48 1   
    46    24    49 1   
    47    25    26 1   
    48    26    27 2   
    49    26    28 1   
    50    28    50 1   
    51    28    51 1   
    52    28    52 1   
@<TRIPOS>SUBSTRUCTURE
     1 SIO         1 TEMP              0 ****  ****    0 ROOT
