@<TRIPOS>MOLECULE
SIO
   52    52     1     0     0
SMALL
abcg2


@<TRIPOS>ATOM
      1 OA4          4.9810     0.4210     1.0960 o          1 SIO      -0.481000
      2 CA4          4.7840    -0.3170     0.1620 c          1 SIO       0.590100
      3 CM4          5.8270    -1.1800    -0.4840 c3         1 SIO      -0.158100
      4 O4           3.6000    -0.4800    -0.4190 os         1 SIO      -0.460100
      5 C4           2.4540     0.2190     0.0940 c6         1 SIO       0.169300
      6 C5           1.2610    -0.6820    -0.1930 c6         1 SIO       0.073700
      7 N5           1.3400    -1.8830     0.6010 ns         1 SIO      -0.498900
      8 C10          1.4960    -3.1270     0.1050 c          1 SIO       0.602100
      9 O10          1.5480    -3.3750    -1.0900 o          1 SIO      -0.609100
     10 C11          1.5800    -4.2160     1.1450 c3         1 SIO      -0.182100
     11 C3           2.3130     1.5600    -0.6050 c6         1 SIO      -0.128400
     12 C2           0.9520     2.2320    -0.3850 c6         1 SIO       0.268000
     13 O2           0.7230     3.2600    -1.2840 os         1 SIO      -0.400000
     14 CM2          0.8180     2.9780    -2.6660 c3         1 SIO       0.145900
     15 C1           0.7790     2.8330     1.0460 c          1 SIO       0.729000
     16 O1           1.3350     2.2000     1.9660 o          1 SIO      -0.694000
     17 O3           0.0790     3.8480     1.1500 o          1 SIO      -0.694000
     18 O6          -0.0940     1.2880    -0.5940 os         1 SIO      -0.518000
     19 C6          -0.0430     0.0690     0.1080 c6         1 SIO       0.165300
     20 C7          -1.2750    -0.7190    -0.3410 c3         1 SIO       0.149300
     21 O7          -1.3260    -0.8340    -1.7420 oh         1 SIO      -0.721000
     22 C8          -2.5690    -0.1130     0.2330 c3         1 SIO       0.131300
     23 O8          -2.5410    -0.1040     1.6400 oh         1 SIO      -0.622000
     24 C9          -3.7840    -0.8530    -0.3010 c3         1 SIO       0.129600
     25 O9          -4.9390    -0.2170     0.2520 os         1 SIO      -0.428100
     26 CA9         -6.1290    -0.7270    -0.0360 c          1 SIO       0.592100
     27 OA9         -6.2850    -1.7020    -0.7310 o          1 SIO      -0.509000
     28 CM9         -7.2500     0.0530     0.5850 c3         1 SIO      -0.156100
     29 HM4          5.6400    -2.2280    -0.2420 hc         1 SIO       0.059367
     30 HM4A         5.7950    -1.0890    -1.5690 hc         1 SIO       0.059367
     31 HM4B         6.8170    -0.9130    -0.1270 hc         1 SIO       0.059367
     32 H4           2.5590     0.3620     1.1680 h1         1 SIO       0.112700
     33 H5           1.2700    -0.9720    -1.2450 h1         1 SIO       0.099700
     34 HN5          1.3340    -1.7710     1.6030 hn         1 SIO       0.312500
     35 H11          1.5830    -3.8460     2.1690 hc         1 SIO       0.052367
     36 H11A         0.7320    -4.8910     1.0280 hc         1 SIO       0.052367
     37 H11B         2.4850    -4.8030     0.9880 hc         1 SIO       0.052367
     38 H3           3.1040     2.2370    -0.2800 hc         1 SIO       0.051700
     39 H3A          2.4620     1.3820    -1.6740 hc         1 SIO       0.051700
     40 HM2          0.3370     2.0390    -2.9470 h1         1 SIO       0.013367
     41 HM2A         0.3080     3.7880    -3.1870 h1         1 SIO       0.013367
     42 HM2B         1.8530     2.9540    -3.0200 h1         1 SIO       0.013367
     43 H6          -0.1060     0.2330     1.1900 h1         1 SIO       0.086700
     44 H7          -1.1840    -1.7410     0.0450 h1         1 SIO       0.059700
     45 HO7         -1.2490     0.0520    -2.1140 ho         1 SIO       0.522000
     46 H8          -2.6390     0.9370    -0.0690 h1         1 SIO       0.116700
     47 HO8         -2.5070    -1.0140     1.9580 ho         1 SIO       0.422000
     48 H9          -3.8190    -0.8090    -1.3900 h1         1 SIO       0.053700
     49 H9A         -3.7550    -1.9080    -0.0070 h1         1 SIO       0.053700
     50 HM9         -6.9040     0.8070     1.2880 hc         1 SIO       0.065700
     51 HM9A        -7.8180     0.5480    -0.2030 hc         1 SIO       0.065700
     52 HM9B        -7.9300    -0.6280     1.0930 hc         1 SIO       0.065700
@<TRIPOS>BOND
     1     1     2 2   
     2     2     3 1   
     3     2     4 1   
     4     3    29 1   
     5     3    30 1   
     6     3    31 1   
     7     4     5 1   
     8     5     6 1   
     9     5    11 1   
    10     5    32 1   
    11     6     7 1   
    12     6    19 1   
    13     6    33 1   
    14     7     8 1   
    15     7    34 1   
    16     8     9 2   
    17     8    10 1   
    18    10    35 1   
    19    10    36 1   
    20    10    37 1   
    21    11    12 1   
    22    11    38 1   
    23    11    39 1   
    24    12    13 1   
    25    12    15 1   
    26    12    18 1   
    27    13    14 1   
    28    14    40 1   
    29    14    41 1   
    30    14    42 1   
    31    15    16 1   
    32    15    17 1   
    33    18    19 1   
    34    19    20 1   
    35    19    43 1   
    36    20    21 1   
    37    20    22 1   
    38    20    44 1   
    39    21    45 1   
    40    22    23 1   
    41    22    24 1   
    42    22    46 1   
    43    23    47 1   
    44    24    25 1   
    45    24    48 1   
    46    24    49 1   
    47    25    26 1   
    48    26    27 2   
    49    26    28 1   
    50    28    50 1   
    51    28    51 1   
    52    28    52 1   
@<TRIPOS>SUBSTRUCTURE
     1 SIO         1 TEMP              0 ****  ****    0 ROOT
