@<TRIPOS>MOLECULE
SIP
   55    58     1     0     0
SMALL
No Charge or Current Charge


@<TRIPOS>ATOM
      1 C1         -93.5450   -21.5690   210.1470 c6         1 SIP      -0.073900
      2 C2         -92.4540   -20.9480   211.0510 c6         1 SIP       0.165800
      3 C4         -92.9890   -22.5270   212.8560 c6         1 SIP       0.165800
      4 C5         -94.0780   -23.1900   211.9790 c6         1 SIP      -0.073900
      5 C6         -93.7820   -23.0750   210.4520 c5         1 SIP       0.187200
      6 C7         -92.5660   -23.9590   210.0130 c          1 SIP       0.561000
      7 C10        -94.2950   -24.4520   208.4670 c5         1 SIP       0.412200
      8 C12        -96.1910   -23.8250   209.9970 ca         1 SIP       0.351000
      9 C13        -96.6990   -25.1030   210.2870 ca         1 SIP      -0.192500
     10 C14        -98.0310   -25.2630   210.7070 ca         1 SIP      -0.067000
     11 C15        -98.8620   -24.1380   210.8360 ca         1 SIP      -0.161000
     12 C16        -98.3620   -22.8570   210.5480 ca         1 SIP      -0.067000
     13 C17        -97.0290   -22.7050   210.1290 ca         1 SIP      -0.192500
     14 C19        -92.2110   -20.2810   214.8450 c3         1 SIP      -0.068400
     15 C20        -91.2460   -19.3850   215.6640 c3         1 SIP      -0.177400
     16 C21        -91.5810   -19.2230   217.1610 c          1 SIP       0.586700
     17 C23        -90.6930   -18.3550   218.0340 ca         1 SIP      -0.194600
     18 C24        -89.5530   -17.6910   217.5160 ca         1 SIP      -0.038500
     19 C25        -88.7510   -16.8950   218.3530 ca         1 SIP      -0.168000
     20 C26        -89.0740   -16.7520   219.7080 ca         1 SIP       0.198000
     21 C27        -90.1970   -17.4010   220.2370 ca         1 SIP      -0.168000
     22 C28        -91.0030   -18.1980   219.4070 ca         1 SIP      -0.038500
     23 F29        -88.3010   -15.9850   220.5080 f          1 SIP      -0.173000
     24 N3         -92.7900   -21.0940   212.4940 n3         1 SIP      -0.720600
     25 N9         -93.0080   -24.7910   209.0260 ns         1 SIP      -0.524900
     26 N11        -94.8540   -23.6670   209.5850 nh         1 SIP      -0.864400
     27 O8         -91.4290   -24.0210   210.4610 o          1 SIP      -0.547000
     28 O22        -92.5560   -19.7910   217.6420 o          1 SIP      -0.520100
     29 H1         -93.2630   -21.4420   209.0930 hc         1 SIP       0.059450
     30 H2         -94.4770   -21.0090   210.2870 hc         1 SIP       0.059450
     31 H3         -91.4830   -21.4150   210.8320 h1         1 SIP       0.043450
     32 H4         -92.3580   -19.8830   210.7920 h1         1 SIP       0.043450
     33 H5         -93.3070   -22.6210   213.9040 h1         1 SIP       0.043450
     34 H6         -92.0450   -23.0820   212.7620 h1         1 SIP       0.043450
     35 H7         -95.0400   -22.7140   212.2100 hc         1 SIP       0.059450
     36 H8         -94.1810   -24.2470   212.2590 hc         1 SIP       0.059450
     37 H9         -94.1920   -23.8360   207.5650 h2         1 SIP       0.041700
     38 H10        -96.0560   -25.9740   210.1990 ha         1 SIP       0.116500
     39 H11        -98.4170   -26.2550   210.9330 ha         1 SIP       0.109000
     40 H12        -99.8940   -24.2580   211.1610 ha         1 SIP       0.114000
     41 H13        -99.0060   -21.9850   210.6460 ha         1 SIP       0.109000
     42 H14        -96.6480   -21.7160   209.8990 ha         1 SIP       0.116500
     43 H15        -90.8300   -20.8860   213.2920 h1         1 SIP       0.028200
     44 H16        -91.6720   -19.3680   212.9790 h1         1 SIP       0.028200
     45 H17        -93.2270   -19.8720   214.9080 hc         1 SIP       0.061200
     46 H18        -92.2330   -21.2790   215.2970 hc         1 SIP       0.061200
     47 H19        -90.2110   -19.7380   215.5900 hc         1 SIP       0.061200
     48 H20        -91.1650   -18.3810   215.2310 hc         1 SIP       0.061200
     49 H21        -89.2710   -17.7800   216.4690 ha         1 SIP       0.128500
     50 H22        -87.8780   -16.3880   217.9510 ha         1 SIP       0.136000
     51 H23        -90.4420   -17.2860   221.2900 ha         1 SIP       0.136000
     52 H24        -91.8710   -18.6940   219.8380 ha         1 SIP       0.128500
     53 H26        -94.8920   -25.3490   208.2580 h2         1 SIP       0.041700
     54 H25        -92.3570   -25.4460   208.6150 hn         1 SIP       0.339500
     55 C18        -91.8080   -20.3910   213.3570 c3         1 SIP       0.168800
@<TRIPOS>BOND
     1     1     2 1   
     2     1     5 1   
     3     1    29 1   
     4     1    30 1   
     5     2    24 1   
     6     2    31 1   
     7     2    32 1   
     8     3     4 1   
     9     3    24 1   
    10     3    33 1   
    11     3    34 1   
    12     4     5 1   
    13     4    35 1   
    14     4    36 1   
    15     5     6 1   
    16     5    26 1   
    17     6    25 1   
    18     6    27 2   
    19     7    25 1   
    20     7    26 1   
    21     7    37 1   
    22     7    53 1   
    23     8     9 ar  
    24     8    13 ar  
    25     8    26 1   
    26     9    10 ar  
    27     9    38 1   
    28    10    11 ar  
    29    10    39 1   
    30    11    12 ar  
    31    11    40 1   
    32    12    13 ar  
    33    12    41 1   
    34    13    42 1   
    35    14    15 1   
    36    14    45 1   
    37    14    46 1   
    38    14    55 1   
    39    15    16 1   
    40    15    47 1   
    41    15    48 1   
    42    16    17 1   
    43    16    28 2   
    44    17    18 ar  
    45    17    22 ar  
    46    18    19 ar  
    47    18    49 1   
    48    19    20 ar  
    49    19    50 1   
    50    20    21 ar  
    51    20    23 1   
    52    21    22 ar  
    53    21    51 1   
    54    22    52 1   
    55    24    55 1   
    56    25    54 1   
    57    43    55 1   
    58    44    55 1   
@<TRIPOS>SUBSTRUCTURE
     1 SIP         1 TEMP              0 ****  ****    0 ROOT
