@<TRIPOS>MOLECULE
SIP
   55    58     1     0     0
SMALL
bcc


@<TRIPOS>ATOM
      1 C1         -93.5110   -21.7810   210.2210 c6         1 SIP      -0.073900
      2 C2         -92.4760   -21.0240   211.0380 c6         1 SIP       0.165800
      3 C4         -92.3680   -22.6970   212.7170 c6         1 SIP       0.165800
      4 C5         -93.3860   -23.5900   212.0260 c6         1 SIP      -0.073900
      5 C6         -93.5530   -23.2910   210.5240 c5         1 SIP       0.187200
      6 C7         -92.4290   -23.9810   209.7540 c          1 SIP       0.703500
      7 C10        -94.4100   -24.9370   208.9730 c5         1 SIP       0.412200
      8 C12        -96.0450   -23.7340   210.3230 ca         1 SIP       0.212600
      9 C13        -97.0610   -24.4970   209.7170 ca         1 SIP      -0.210500
     10 C14        -98.3920   -24.3240   210.0630 ca         1 SIP      -0.085000
     11 C15        -98.7730   -23.3920   211.0170 ca         1 SIP      -0.179000
     12 C16        -97.7810   -22.6300   211.6180 ca         1 SIP      -0.085000
     13 C17        -96.4450   -22.7880   211.2860 ca         1 SIP      -0.210500
     14 C19        -92.3160   -20.3230   214.7140 c3         1 SIP      -0.068400
     15 C20        -91.4200   -19.3990   215.5240 c3         1 SIP      -0.177400
     16 C21        -91.8480   -19.2130   216.9570 c          1 SIP       0.586700
     17 C23        -91.0050   -18.3510   217.8340 ca         1 SIP      -0.194600
     18 C24        -89.8510   -17.7210   217.3680 ca         1 SIP      -0.056500
     19 C25        -89.0840   -16.9280   218.2060 ca         1 SIP      -0.186000
     20 C26        -89.4870   -16.7730   219.5180 ca         1 SIP       0.162900
     21 C27        -90.6260   -17.3810   220.0180 ca         1 SIP      -0.186000
     22 C28        -91.3790   -18.1690   219.1670 ca         1 SIP      -0.056500
     23 F29        -88.7510   -16.0100   220.3330 f          1 SIP      -0.137900
     24 N3         -92.6420   -21.2950   212.4550 n3         1 SIP      -0.720600
     25 N9         -92.9820   -24.8630   208.9170 ns         1 SIP      -0.591900
     26 N11        -94.7360   -23.9330   209.9590 nh         1 SIP      -0.726000
     27 O8         -91.2380   -23.7610   209.8840 o          1 SIP      -0.622500
     28 O22        -92.8470   -19.7410   217.3970 o          1 SIP      -0.520100
     29 H1         -93.3290   -21.6280   209.1540 hc         1 SIP       0.059450
     30 H2         -94.4890   -21.3470   210.4270 hc         1 SIP       0.059450
     31 H3         -91.4590   -21.2650   210.6920 h1         1 SIP       0.043450
     32 H4         -92.6230   -19.9560   210.8630 h1         1 SIP       0.043450
     33 H5         -92.4320   -22.8880   213.7890 h1         1 SIP       0.043450
     34 H6         -91.3440   -22.9640   212.4110 h1         1 SIP       0.043450
     35 H7         -94.3430   -23.4630   212.5310 hc         1 SIP       0.059450
     36 H8         -93.1090   -24.6390   212.1610 hc         1 SIP       0.059450
     37 H9         -94.8570   -24.7170   207.9970 h2         1 SIP       0.041700
     38 H10        -96.8270   -25.2400   208.9670 ha         1 SIP       0.134500
     39 H11        -99.1380   -24.9380   209.5730 ha         1 SIP       0.127000
     40 H12        -99.8130   -23.2630   211.2860 ha         1 SIP       0.132000
     41 H13        -98.0410   -21.8920   212.3660 ha         1 SIP       0.127000
     42 H14        -95.7250   -22.1620   211.7910 ha         1 SIP       0.134500
     43 H15        -90.7640   -20.7150   213.2550 h1         1 SIP       0.028200
     44 H16        -91.8660   -19.4140   212.8380 h1         1 SIP       0.028200
     45 H17        -93.3430   -19.9530   214.7110 hc         1 SIP       0.061200
     46 H18        -92.3390   -21.3090   215.1830 hc         1 SIP       0.061200
     47 H19        -90.3900   -19.7700   215.5160 hc         1 SIP       0.061200
     48 H20        -91.3700   -18.4110   215.0530 hc         1 SIP       0.061200
     49 H21        -89.5300   -17.8400   216.3430 ha         1 SIP       0.146500
     50 H22        -88.1890   -16.4410   217.8440 ha         1 SIP       0.154000
     51 H23        -90.9140   -17.2400   221.0510 ha         1 SIP       0.154000
     52 H24        -92.2700   -18.6500   219.5470 ha         1 SIP       0.146500
     53 H26        -94.7420   -25.9380   209.2750 h2         1 SIP       0.041700
     54 H25        -92.4410   -25.4480   208.2990 hn         1 SIP       0.339500
     55 C18        -91.8270   -20.4160   213.2740 c3         1 SIP       0.168800
@<TRIPOS>BOND
     1     1     2 1   
     2     1     5 1   
     3     1    29 1   
     4     1    30 1   
     5     2    24 1   
     6     2    31 1   
     7     2    32 1   
     8     3     4 1   
     9     3    24 1   
    10     3    33 1   
    11     3    34 1   
    12     4     5 1   
    13     4    35 1   
    14     4    36 1   
    15     5     6 1   
    16     5    26 1   
    17     6    25 1   
    18     6    27 2   
    19     7    25 1   
    20     7    26 1   
    21     7    37 1   
    22     7    53 1   
    23     8     9 ar  
    24     8    13 ar  
    25     8    26 1   
    26     9    10 ar  
    27     9    38 1   
    28    10    11 ar  
    29    10    39 1   
    30    11    12 ar  
    31    11    40 1   
    32    12    13 ar  
    33    12    41 1   
    34    13    42 1   
    35    14    15 1   
    36    14    45 1   
    37    14    46 1   
    38    14    55 1   
    39    15    16 1   
    40    15    47 1   
    41    15    48 1   
    42    16    17 1   
    43    16    28 2   
    44    17    18 ar  
    45    17    22 ar  
    46    18    19 ar  
    47    18    49 1   
    48    19    20 ar  
    49    19    50 1   
    50    20    21 ar  
    51    20    23 1   
    52    21    22 ar  
    53    21    51 1   
    54    22    52 1   
    55    24    55 1   
    56    25    54 1   
    57    43    55 1   
    58    44    55 1   
@<TRIPOS>SUBSTRUCTURE
     1 SIP         1 TEMP              0 ****  ****    0 ROOT
