@<TRIPOS>MOLECULE
SIS
   68    70     1     0     0
SMALL
No Charge or Current Charge


@<TRIPOS>ATOM
      1 C11         -3.8830     0.5440     0.3630 c6         1 SIS       0.409300
      2 C12          0.9630    -1.7330     1.3130 c6         1 SIS       0.147500
      3 C13          2.2560     1.1440    -0.4600 c6         1 SIS       0.369300
      4 C21         -4.9640     1.4070     1.1170 c6         1 SIS       0.133500
      5 C22         -0.1820    -2.7440     1.0640 c6         1 SIS      -0.114400
      6 C23          3.4030     0.2870    -1.1130 c6         1 SIS       0.121300
      7 C31         -5.7050     2.2560     0.0540 c6         1 SIS      -0.065200
      8 C32         -1.5480    -2.1610     1.5160 c6         1 SIS       0.167500
      9 C33          4.7000     0.3360    -0.2060 c6         1 SIS       0.172500
     10 C41         -6.1130     1.3880    -1.1320 c2         1 SIS      -0.341200
     11 C42         -1.8640    -0.7920     0.8200 c6         1 SIS       0.144300
     12 C43          5.0750     1.8430     0.1010 c6         1 SIS       0.160000
     13 C51         -5.5440     0.1960    -1.3920 c2         1 SIS       0.108900
     14 C52         -0.6960     0.2230     1.0830 c6         1 SIS       0.139300
     15 C53          3.8270     2.5410     0.7300 c6         1 SIS       0.126600
     16 C61         -5.9920    -0.7660    -2.4910 c3         1 SIS       0.199000
     17 C62          0.6520    -0.3850     0.5910 c6         1 SIS       0.199300
     18 C83          6.2730     1.9480     1.0910 c3         1 SIS      -0.113100
     19 N12          2.2610    -2.3230     0.8810 n8         1 SIS      -0.999200
     20 N21         -5.9660     0.6110     1.9020 n8         1 SIS      -0.975200
     21 N33          5.8820    -0.3930    -0.7850 n7         1 SIS      -0.874400
     22 N61         -5.2380    -0.5710    -3.7540 n8         1 SIS      -0.993200
     23 O11         -3.1510    -0.2980     1.2850 os         1 SIS      -0.432000
     24 O23          2.9590    -1.0710    -1.3920 oh         1 SIS      -0.755000
     25 O43          5.4630     2.5150    -1.1200 oh         1 SIS      -0.710000
     26 O51         -4.5060    -0.3030    -0.6370 os         1 SIS      -0.394100
     27 O52         -0.9180     1.5220     0.4910 oh         1 SIS      -0.713000
     28 O53          2.6920     2.4830    -0.1610 os         1 SIS      -0.437000
     29 O62          1.7470     0.5520     0.7560 os         1 SIS      -0.499000
     30 H1          -3.2020     1.2400    -0.1440 h2         1 SIS       0.049700
     31 H2           1.0250    -1.5510     2.3980 h1         1 SIS       0.071700
     32 H3           1.4370     1.2230    -1.1920 h2         1 SIS       0.080700
     33 H4          -4.4570     2.0890     1.8190 h1         1 SIS       0.070700
     34 H5          -0.2230    -3.0060    -0.0020 hc         1 SIS       0.053200
     35 H6           0.0200    -3.6750     1.6110 hc         1 SIS       0.053200
     36 H7           3.6540     0.7810    -2.0630 h1         1 SIS       0.090700
     37 H8          -6.5870     2.7430     0.4950 hc         1 SIS       0.054200
     38 H9          -5.0500     3.0650    -0.2980 hc         1 SIS       0.054200
     39 H10         -1.5180    -1.9840     2.6020 h1         1 SIS       0.031700
     40 H11          4.4500    -0.1340     0.7570 h1         1 SIS       0.063700
     41 H12         -6.9410     1.7500    -1.7440 ha         1 SIS       0.190000
     42 H13         -1.9300    -0.9770    -0.2630 h1         1 SIS       0.071700
     43 H14         -0.6160     0.3440     2.1740 h1         1 SIS       0.054700
     44 H15          3.5670     2.0660     1.6870 h1         1 SIS       0.051200
     45 H16          4.0520     3.5960     0.9390 h1         1 SIS       0.051200
     46 H17         -5.8510    -1.8020    -2.1540 h1         1 SIS       0.041200
     47 H18         -7.0630    -0.6230    -2.6950 h1         1 SIS       0.041200
     48 H19          0.5350    -0.6120    -0.4790 h1         1 SIS       0.053700
     49 H20          6.0640     1.4060     2.0210 hc         1 SIS       0.044367
     50 H21          7.1920     1.5290     0.6650 hc         1 SIS       0.044367
     51 H22          6.4830     2.9910     1.3580 hc         1 SIS       0.044367
     52 H23          5.6090    -2.2940     0.1410 h1         1 SIS       0.026367
     53 H24          5.1860    -2.2500    -1.5910 h1         1 SIS       0.026367
     54 H25          6.8840    -2.2390    -1.0950 h1         1 SIS       0.026367
     55 H26          2.9660    -2.0870     1.5940 hn         1 SIS       0.405500
     56 H27          2.1950    -3.3460     0.9740 hn         1 SIS       0.405500
     57 H29         -6.8160     1.1730     2.0110 hn         1 SIS       0.396500
     58 H30         -6.2700    -0.1640     1.3020 hn         1 SIS       0.396500
     59 H35          6.0730    -0.0140    -1.7210 hn         1 SIS       0.430000
     60 H37         -4.2460    -0.7560    -3.5650 hn         1 SIS       0.404500
     61 H38         -5.5020    -1.3100    -4.4160 hn         1 SIS       0.404500
     62 H40          2.7070    -1.4870    -0.5080 ho         1 SIS       0.547000
     63 H41          5.6150     3.4590    -0.8930 ho         1 SIS       0.498000
     64 H42         -0.1070     2.0490     0.6880 ho         1 SIS       0.516000
     65 N32         -2.6200    -3.1530     1.2740 n8         1 SIS      -1.004200
     66 C93          5.8830    -1.8690    -0.8340 c3         1 SIS       0.161100
     67 H32         -2.6560    -3.8030     2.0670 hn         1 SIS       0.407500
     68 H33         -3.5150    -2.6500     1.3370 hn         1 SIS       0.407500
@<TRIPOS>BOND
     1     1     4 1   
     2     1    23 1   
     3     1    26 1   
     4     1    30 1   
     5     2     5 1   
     6     2    17 1   
     7     2    19 1   
     8     2    31 1   
     9     3     6 1   
    10     3    28 1   
    11     3    29 1   
    12     3    32 1   
    13     4     7 1   
    14     4    20 1   
    15     4    33 1   
    16     5     8 1   
    17     5    34 1   
    18     5    35 1   
    19     6     9 1   
    20     6    24 1   
    21     6    36 1   
    22     7    10 1   
    23     7    37 1   
    24     7    38 1   
    25     8    11 1   
    26     8    39 1   
    27     8    65 1   
    28     9    12 1   
    29     9    21 1   
    30     9    40 1   
    31    10    13 2   
    32    10    41 1   
    33    11    14 1   
    34    11    23 1   
    35    11    42 1   
    36    12    15 1   
    37    12    18 1   
    38    12    25 1   
    39    13    16 1   
    40    13    26 1   
    41    14    17 1   
    42    14    27 1   
    43    14    43 1   
    44    15    28 1   
    45    15    44 1   
    46    15    45 1   
    47    16    22 1   
    48    16    46 1   
    49    16    47 1   
    50    17    29 1   
    51    17    48 1   
    52    18    49 1   
    53    18    50 1   
    54    18    51 1   
    55    19    55 1   
    56    19    56 1   
    57    20    57 1   
    58    20    58 1   
    59    21    59 1   
    60    21    66 1   
    61    22    60 1   
    62    22    61 1   
    63    24    62 1   
    64    25    63 1   
    65    27    64 1   
    66    52    66 1   
    67    53    66 1   
    68    54    66 1   
    69    65    67 1   
    70    65    68 1   
@<TRIPOS>SUBSTRUCTURE
     1 SIS         1 TEMP              0 ****  ****    0 ROOT
