@<TRIPOS>MOLECULE
SIS
   68    70     1     0     0
SMALL
abcg2


@<TRIPOS>ATOM
      1 C11         -3.7470     0.6960     0.0820 c6         1 SIS       0.409300
      2 C12          0.8330    -2.0110     0.2750 c6         1 SIS       0.147500
      3 C13          2.6040     0.8350    -0.9100 c6         1 SIS       0.369300
      4 C21         -4.3650     1.9640     0.6550 c6         1 SIS       0.133500
      5 C22         -0.5130    -2.7180     0.1600 c6         1 SIS      -0.114400
      6 C23          3.9940     0.2290    -1.1380 c6         1 SIS       0.121300
      7 C31         -5.4030     2.4450    -0.3700 c6         1 SIS      -0.065200
      8 C32         -1.6510    -1.9710     0.8470 c6         1 SIS       0.167500
      9 C33          4.8690     0.3960     0.1170 c6         1 SIS       0.172500
     10 C41         -6.2290     1.2960    -0.8740 c2         1 SIS      -0.341200
     11 C42         -1.7420    -0.5790     0.2350 c6         1 SIS       0.144300
     12 C43          4.8840     1.8780     0.5390 c6         1 SIS       0.160000
     13 C51         -5.8840     0.0270    -0.6580 c2         1 SIS       0.108900
     14 C52         -0.4230     0.1780     0.3840 c6         1 SIS       0.139300
     15 C53          3.4440     2.3790     0.6550 c6         1 SIS       0.126600
     16 C61         -6.6680    -1.1880    -1.0380 c3         1 SIS       0.199000
     17 C62          0.7410    -0.5770    -0.2440 c6         1 SIS       0.199300
     18 C83          5.5880     2.0630     1.8770 c3         1 SIS      -0.113100
     19 N12          1.9110    -2.7070    -0.4220 n8         1 SIS      -0.999200
     20 N21         -4.8840     1.7140     1.9880 n8         1 SIS      -0.975200
     21 N33          6.2190    -0.1100    -0.0350 n7         1 SIS      -0.874400
     22 N61         -5.8600    -2.0880    -1.8540 n8         1 SIS      -0.993200
     23 O11         -2.7450     0.1990     0.8790 os         1 SIS      -0.432000
     24 O23          3.8980    -1.0940    -1.5850 oh         1 SIS      -0.755000
     25 O43          5.5660     2.5770    -0.4890 oh         1 SIS      -0.710000
     26 O51         -4.7410    -0.3150    -0.0090 os         1 SIS      -0.394100
     27 O52         -0.5090     1.4380    -0.2390 oh         1 SIS      -0.713000
     28 O53          2.6920     2.1690    -0.5220 os         1 SIS      -0.437000
     29 O62          1.9510     0.0710     0.0640 os         1 SIS      -0.499000
     30 H1          -3.3810     0.9070    -0.9340 h2         1 SIS       0.049700
     31 H2           1.1150    -1.9590     1.3320 h1         1 SIS       0.071700
     32 H3           2.0350     0.8270    -1.8470 h2         1 SIS       0.080700
     33 H4          -3.5740     2.7130     0.7380 h1         1 SIS       0.070700
     34 H5          -0.7700    -2.8490    -0.8980 hc         1 SIS       0.053200
     35 H6          -0.4230    -3.7220     0.5840 hc         1 SIS       0.053200
     36 H7           4.4620     0.7940    -1.9520 h1         1 SIS       0.090700
     37 H8          -6.0430     3.2000     0.0950 hc         1 SIS       0.054200
     38 H9          -4.9050     2.9510    -1.2040 hc         1 SIS       0.054200
     39 H10         -1.3930    -1.8530     1.9130 h1         1 SIS       0.031700
     40 H11          4.4020    -0.1620     0.9380 h1         1 SIS       0.063700
     41 H12         -7.1450     1.4990    -1.4140 ha         1 SIS       0.190000
     42 H13         -1.9770    -0.6930    -0.8330 h1         1 SIS       0.071700
     43 H14         -0.2130     0.2850     1.4580 h1         1 SIS       0.054700
     44 H15          2.9590     1.9120     1.5200 h1         1 SIS       0.051200
     45 H16          3.4390     3.4580     0.8340 h1         1 SIS       0.051200
     46 H17         -7.0450    -1.6580    -0.1170 h1         1 SIS       0.041200
     47 H18         -7.5440    -0.8750    -1.6070 h1         1 SIS       0.041200
     48 H19          0.5880    -0.6100    -1.3350 h1         1 SIS       0.053700
     49 H20          5.0900     1.5060     2.6720 hc         1 SIS       0.044367
     50 H21          6.6160     1.7130     1.8110 hc         1 SIS       0.044367
     51 H22          5.5980     3.1160     2.1710 hc         1 SIS       0.044367
     52 H23          6.1790    -1.6330     1.3900 h1         1 SIS       0.026367
     53 H24          5.8290    -2.2220    -0.2370 h1         1 SIS       0.026367
     54 H25          7.4730    -1.7530     0.2110 h1         1 SIS       0.026367
     55 H26          2.1740    -3.5400     0.0900 hn         1 SIS       0.405500
     56 H27          1.5760    -3.0320    -1.3240 hn         1 SIS       0.405500
     57 H29         -5.1630     2.5960     2.4010 hn         1 SIS       0.396500
     58 H30         -5.7320     1.1610     1.9370 hn         1 SIS       0.396500
     59 H35          6.5530     0.0510    -0.9750 hn         1 SIS       0.430000
     60 H37         -5.0680    -2.4120    -1.3110 hn         1 SIS       0.404500
     61 H38         -6.4050    -2.9150    -2.0630 hn         1 SIS       0.404500
     62 H40          3.2910    -1.6150    -1.0080 ho         1 SIS       0.547000
     63 H41          5.6180     3.5060    -0.2430 ho         1 SIS       0.498000
     64 H42         -0.7780     2.0900     0.4120 ho         1 SIS       0.516000
     65 N32         -2.8890    -2.7070     0.6490 n8         1 SIS      -1.004200
     66 C93          6.4190    -1.4960     0.3340 c3         1 SIS       0.161100
     67 H32         -2.8230    -3.5920     1.1380 hn         1 SIS       0.407500
     68 H33         -3.6590    -2.2120     1.0770 hn         1 SIS       0.407500
@<TRIPOS>BOND
     1     1     4 1   
     2     1    23 1   
     3     1    26 1   
     4     1    30 1   
     5     2     5 1   
     6     2    17 1   
     7     2    19 1   
     8     2    31 1   
     9     3     6 1   
    10     3    28 1   
    11     3    29 1   
    12     3    32 1   
    13     4     7 1   
    14     4    20 1   
    15     4    33 1   
    16     5     8 1   
    17     5    34 1   
    18     5    35 1   
    19     6     9 1   
    20     6    24 1   
    21     6    36 1   
    22     7    10 1   
    23     7    37 1   
    24     7    38 1   
    25     8    11 1   
    26     8    39 1   
    27     8    65 1   
    28     9    12 1   
    29     9    21 1   
    30     9    40 1   
    31    10    13 2   
    32    10    41 1   
    33    11    14 1   
    34    11    23 1   
    35    11    42 1   
    36    12    15 1   
    37    12    18 1   
    38    12    25 1   
    39    13    16 1   
    40    13    26 1   
    41    14    17 1   
    42    14    27 1   
    43    14    43 1   
    44    15    28 1   
    45    15    44 1   
    46    15    45 1   
    47    16    22 1   
    48    16    46 1   
    49    16    47 1   
    50    17    29 1   
    51    17    48 1   
    52    18    49 1   
    53    18    50 1   
    54    18    51 1   
    55    19    55 1   
    56    19    56 1   
    57    20    57 1   
    58    20    58 1   
    59    21    59 1   
    60    21    66 1   
    61    22    60 1   
    62    22    61 1   
    63    24    62 1   
    64    25    63 1   
    65    27    64 1   
    66    52    66 1   
    67    53    66 1   
    68    54    66 1   
    69    65    67 1   
    70    65    68 1   
@<TRIPOS>SUBSTRUCTURE
     1 SIS         1 TEMP              0 ****  ****    0 ROOT
