@<TRIPOS>MOLECULE
SIT
   99   102     1     0     0
SMALL
abcg2


@<TRIPOS>ATOM
      1 C10         18.7540    18.4680    -0.2760 c5         1 SIT       0.040400
      2 C01         14.2740    19.0340     0.9120 c3         1 SIT      -0.084100
      3 C02         14.9380    18.8220    -0.4500 c3         1 SIT      -0.021500
      4 C03         14.2340    17.7270    -1.2430 c3         1 SIT       0.172600
      5 C06         10.8820    18.1470    -2.7130 c3         1 SIT      -0.155100
      6 C08         16.3920    18.4770    -0.2820 c2         1 SIT      -0.089400
      7 C09         17.4660    19.1360    -0.7350 c2         1 SIT      -0.129400
      8 C11         18.2220    17.0410     0.0000 c5         1 SIT       0.171300
      9 C13         16.8090    17.2740     0.5230 c5         1 SIT      -0.090200
     10 C14         19.8570    18.4270    -1.3400 c3         1 SIT      -0.084100
     11 C15         19.3490    19.0530     0.9820 c2         1 SIT      -0.196200
     12 C16         19.0100    20.1210     1.7030 c2         1 SIT      -0.106400
     13 C17         17.8550    21.0870     1.5010 c5         1 SIT      -0.019500
     14 C18         17.7930    21.8360     2.8440 c5         1 SIT      -0.081400
     15 C19         19.2310    21.8960     3.3380 c5         1 SIT      -0.068400
     16 C20         19.7990    20.5300     2.9460 c5         1 SIT      -0.032500
     17 C21         21.3020    20.5390     2.7360 c3         1 SIT       0.164600
     18 C24         17.9990    22.0420     0.2840 c3         1 SIT      -0.077700
     19 C25         19.4340    22.3130    -0.1580 c3         1 SIT      -0.084100
     20 C26         17.0800    21.6470    -0.8880 c3         1 SIT       0.165300
     21 C28         17.4690    20.3570    -1.6170 c3         1 SIT       0.235500
     22 C30         17.0840    20.1840    -3.9770 c6         1 SIT       0.361300
     23 C31         15.9360    20.3920    -4.9700 c6         1 SIT       0.116300
     24 C33         15.0110    19.1810    -5.0000 c6         1 SIT       0.179300
     25 C35         15.8300    17.9370    -5.2970 c6         1 SIT       0.151300
     26 C37         16.9920    17.8280    -4.2980 c6         1 SIT       0.135300
     27 C38         17.9160    16.6620    -4.5720 c3         1 SIT       0.163600
     28 C41         20.0720    16.4060    -7.5260 c3         1 SIT      -0.098100
     29 C42         20.7730    16.6150    -5.1740 c2         1 SIT      -0.242200
     30 C43         21.5780    15.9140    -4.3860 c2         1 SIT      -0.312000
     31 C44         19.4710    14.5760    -5.9370 c3         1 SIT      -0.098100
     32 O04         12.9400    18.2210    -1.6010 os         1 SIT      -0.456100
     33 O07         12.4610    16.3340    -2.6920 o          1 SIT      -0.481000
     34 O12         19.0770    16.3150     0.8400 oh         1 SIT      -0.649000
     35 O22         21.9270    20.9570     3.9240 os         1 SIT      -0.455000
     36 O27         17.0660    22.6590    -1.8710 oh         1 SIT      -0.723000
     37 O29         16.5590    20.1680    -2.6950 os         1 SIT      -0.465000
     38 O32         15.1510    21.5180    -4.6740 oh         1 SIT      -0.709000
     39 O34         14.0290    19.3150    -5.9970 oh         1 SIT      -0.649000
     40 O36         14.9840    16.8160    -5.1960 oh         1 SIT      -0.700000
     41 O39         18.4920    16.8060    -5.8450 os         1 SIT      -0.458000
     42 O45         17.7770    19.0090    -4.2990 os         1 SIT      -0.467000
     43 H013        13.2260    19.3120     0.8040 hc         1 SIT       0.037367
     44 H012        14.3170    18.1280     1.5200 hc         1 SIT       0.037367
     45 H021        14.8520    19.7430    -1.0280 hc         1 SIT       0.087700
     46 H032        14.1340    16.8140    -0.6500 h1         1 SIT       0.050700
     47 H031        14.7910    17.4790    -2.1480 h1         1 SIT       0.050700
     48 H062        10.1530    17.4360    -3.0910 hc         1 SIT       0.067700
     49 H063        10.4610    18.6860    -1.8660 hc         1 SIT       0.067700
     50 H061        11.0850    18.8800    -3.4970 hc         1 SIT       0.067700
     51 H111        18.1310    16.5480    -0.9810 h1         1 SIT       0.031700
     52 H132        16.8190    17.5030     1.5960 hc         1 SIT       0.061700
     53 H131        16.1600    16.4050     0.3890 hc         1 SIT       0.061700
     54 H141        20.6560    17.7520    -1.0290 hc         1 SIT       0.043700
     55 H142        19.4690    18.0720    -2.2950 hc         1 SIT       0.043700
     56 H143        20.3080    19.4060    -1.5050 hc         1 SIT       0.043700
     57 H151        20.2240    18.5010     1.3160 ha         1 SIT       0.182000
     58 H171        16.9220    20.5360     1.3750 hc         1 SIT       0.063700
     59 H181        17.3220    22.8170     2.7590 hc         1 SIT       0.043200
     60 H182        17.1940    21.2550     3.5510 hc         1 SIT       0.043200
     61 H192        19.7800    22.6960     2.8310 hc         1 SIT       0.049700
     62 H191        19.3030    22.0900     4.4080 hc         1 SIT       0.049700
     63 H201        19.5690    19.8150     3.7470 hc         1 SIT       0.067700
     64 H212        21.6630    19.5410     2.4500 h1         1 SIT       0.024200
     65 H211        21.5500    21.2160     1.9040 h1         1 SIT       0.024200
     66 H232        23.7320    21.3550     4.7550 h1         1 SIT       0.027033
     67 H231        23.7630    20.0500     3.5550 h1         1 SIT       0.027033
     68 H233        23.6340    21.7350     3.0260 h1         1 SIT       0.027033
     69 H241        17.5910    23.0030     0.6230 hc         1 SIT       0.038700
     70 H253        20.0250    22.7200     0.6620 hc         1 SIT       0.037700
     71 H252        19.9440    21.4130    -0.5010 hc         1 SIT       0.037700
     72 H251        19.4590    23.0420    -0.9670 hc         1 SIT       0.037700
     73 H261        16.0690    21.5080    -0.4710 h1         1 SIT       0.042700
     74 H281        18.4800    20.4950    -2.0190 h1         1 SIT       0.063700
     75 H301        17.8250    20.9850    -4.0890 h2         1 SIT       0.074700
     76 H311        16.3990    20.4850    -5.9640 h1         1 SIT       0.054700
     77 H331        14.5440    19.0670    -4.0090 h1         1 SIT       0.065700
     78 H351        16.2380    18.0350    -6.3130 h1         1 SIT       0.064700
     79 H371        16.5720    17.6470    -3.2990 h1         1 SIT       0.059700
     80 H381        17.3430    15.7300    -4.4870 h1         1 SIT       0.035200
     81 H382        18.6770    16.6260    -3.7830 h1         1 SIT       0.035200
     82 H411        20.2250    17.4780    -7.6600 hc         1 SIT       0.043867
     83 H412        20.9940    15.8960    -7.8020 hc         1 SIT       0.043867
     84 H413        19.2870    16.0830    -8.2130 hc         1 SIT       0.043867
     85 H421        20.8840    17.6970    -5.2080 ha         1 SIT       0.182000
     86 H431        22.3370    16.4030    -3.7890 ha         1 SIT       0.162000
     87 H432        21.5230    14.8360    -4.3020 ha         1 SIT       0.162000
     88 H443        19.2470    14.2810    -4.9110 hc         1 SIT       0.043867
     89 H441        18.6420    14.2590    -6.5710 hc         1 SIT       0.043867
     90 H442        20.3570    14.0230    -6.2500 hc         1 SIT       0.043867
     91 H121        18.7790    15.4000     0.8540 ho         1 SIT       0.445000
     92 H271        16.8140    23.4860    -1.4490 ho         1 SIT       0.504000
     93 H321        15.6660    22.3130    -4.8440 ho         1 SIT       0.513000
     94 H341        13.5480    20.1320    -5.8290 ho         1 SIT       0.455000
     95 H361        15.3610    16.0940    -5.7070 ho         1 SIT       0.508000
     96 H011        14.7680    19.8320     1.4690 hc         1 SIT       0.037367
     97 C05         12.1570    17.4470    -2.3460 c          1 SIT       0.596100
     98 C23         23.3220    21.0240     3.8010 c3         1 SIT       0.146900
     99 C40         19.6940    16.0770    -6.0840 c3         1 SIT       0.220200
@<TRIPOS>BOND
     1     1     7 1   
     2     1     8 1   
     3     1    10 1   
     4     1    11 1   
     5     2     3 1   
     6     2    43 1   
     7     2    44 1   
     8     2    96 1   
     9     3     4 1   
    10     3     6 1   
    11     3    45 1   
    12     4    32 1   
    13     4    46 1   
    14     4    47 1   
    15     5    48 1   
    16     5    49 1   
    17     5    50 1   
    18     5    97 1   
    19     6     7 2   
    20     6     9 1   
    21     7    21 1   
    22     8     9 1   
    23     8    34 1   
    24     8    51 1   
    25     9    52 1   
    26     9    53 1   
    27    10    54 1   
    28    10    55 1   
    29    10    56 1   
    30    11    12 2   
    31    11    57 1   
    32    12    13 1   
    33    12    16 1   
    34    13    14 1   
    35    13    18 1   
    36    13    58 1   
    37    14    15 1   
    38    14    59 1   
    39    14    60 1   
    40    15    16 1   
    41    15    61 1   
    42    15    62 1   
    43    16    17 1   
    44    16    63 1   
    45    17    35 1   
    46    17    64 1   
    47    17    65 1   
    48    18    19 1   
    49    18    20 1   
    50    18    69 1   
    51    19    70 1   
    52    19    71 1   
    53    19    72 1   
    54    20    21 1   
    55    20    36 1   
    56    20    73 1   
    57    21    37 1   
    58    21    74 1   
    59    22    23 1   
    60    22    37 1   
    61    22    42 1   
    62    22    75 1   
    63    23    24 1   
    64    23    38 1   
    65    23    76 1   
    66    24    25 1   
    67    24    39 1   
    68    24    77 1   
    69    25    26 1   
    70    25    40 1   
    71    25    78 1   
    72    26    27 1   
    73    26    42 1   
    74    26    79 1   
    75    27    41 1   
    76    27    80 1   
    77    27    81 1   
    78    28    82 1   
    79    28    83 1   
    80    28    84 1   
    81    28    99 1   
    82    29    30 2   
    83    29    85 1   
    84    29    99 1   
    85    30    86 1   
    86    30    87 1   
    87    31    88 1   
    88    31    89 1   
    89    31    90 1   
    90    31    99 1   
    91    32    97 1   
    92    33    97 2   
    93    34    91 1   
    94    35    98 1   
    95    36    92 1   
    96    38    93 1   
    97    39    94 1   
    98    40    95 1   
    99    41    99 1   
   100    66    98 1   
   101    67    98 1   
   102    68    98 1   
@<TRIPOS>SUBSTRUCTURE
     1 SIT         1 TEMP              0 ****  ****    0 ROOT
