@<TRIPOS>MOLECULE
SIT
   99   102     1     0     0
SMALL
No Charge or Current Charge


@<TRIPOS>ATOM
      1 C10         18.7330    18.3580     0.4990 c5         1 SIT       0.040400
      2 C01         14.0150    19.1180     0.9230 c3         1 SIT      -0.084100
      3 C02         14.9550    18.7410    -0.2450 c3         1 SIT      -0.021500
      4 C03         14.4250    17.5530    -1.0800 c3         1 SIT       0.172600
      5 C06         11.4000    17.6810    -3.2750 c3         1 SIT      -0.155100
      6 C08         16.3750    18.4530     0.2390 c2         1 SIT      -0.089400
      7 C09         17.5290    18.9680    -0.2260 c2         1 SIT      -0.129400
      8 C11         18.1030    17.0380     1.0980 c5         1 SIT       0.171300
      9 C13         16.6400    17.4720     1.3630 c5         1 SIT      -0.090200
     10 C14         19.8770    17.9760    -0.4720 c3         1 SIT      -0.084100
     11 C15         19.3320    19.1970     1.6530 c2         1 SIT      -0.196200
     12 C16         18.9530    20.4240     2.0870 c2         1 SIT      -0.106400
     13 C17         17.7980    21.3180     1.6200 c5         1 SIT      -0.019500
     14 C18         17.5610    22.2490     2.8500 c5         1 SIT      -0.081400
     15 C19         18.9910    22.5220     3.3660 c5         1 SIT      -0.068400
     16 C20         19.6380    21.1080     3.2760 c5         1 SIT      -0.032500
     17 C21         21.1860    21.1510     3.1890 c3         1 SIT       0.164600
     18 C24         18.0360    22.0650     0.2520 c3         1 SIT      -0.077700
     19 C25         19.5310    22.3010    -0.1190 c3         1 SIT      -0.084100
     20 C26         17.2230    21.4340    -0.9220 c3         1 SIT       0.165300
     21 C28         17.7040    19.9990    -1.3370 c3         1 SIT       0.235500
     22 C30         17.4370    19.8880    -3.7780 c6         1 SIT       0.361300
     23 C31         16.2770    20.4180    -4.6820 c6         1 SIT       0.116300
     24 C33         15.2710    19.2630    -4.9490 c6         1 SIT       0.179300
     25 C35         16.0040    18.0320    -5.5580 c6         1 SIT       0.151300
     26 C37         17.1730    17.6100    -4.6130 c6         1 SIT       0.135300
     27 C38         18.0300    16.4360    -5.1760 c3         1 SIT       0.163600
     28 C41         19.8120    16.4740    -8.4790 c3         1 SIT      -0.098100
     29 C42         20.7360    15.7870    -6.2490 c2         1 SIT      -0.242200
     30 C43         21.6320    14.7830    -6.2110 c2         1 SIT      -0.312000
     31 C44         18.7760    14.4820    -7.2780 c3         1 SIT      -0.098100
     32 O04         13.2370    17.9780    -1.7730 os         1 SIT      -0.456100
     33 O07         12.9670    15.9100    -2.7350 o          1 SIT      -0.481000
     34 O12         18.7490    16.5150     2.2680 oh         1 SIT      -0.649000
     35 O22         21.6870    21.8370     4.3500 os         1 SIT      -0.455000
     36 O27         17.2100    22.3410    -2.0460 oh         1 SIT      -0.723000
     37 O29         16.9460    19.5390    -2.4720 os         1 SIT      -0.465000
     38 O32         15.5990    21.5510    -4.0850 oh         1 SIT      -0.709000
     39 O34         14.2190    19.7160    -5.8200 oh         1 SIT      -0.649000
     40 O36         15.0640    16.9590    -5.7670 oh         1 SIT      -0.700000
     41 O39         18.5590    16.7800    -6.4840 os         1 SIT      -0.458000
     42 O45         18.0660    18.7320    -4.3650 os         1 SIT      -0.467000
     43 H013        13.0270    19.4120     0.5490 hc         1 SIT       0.037367
     44 H012        13.8810    18.2750     1.6120 hc         1 SIT       0.037367
     45 H021        14.9630    19.5990    -0.9230 hc         1 SIT       0.087700
     46 H032        14.2160    16.6990    -0.4230 h1         1 SIT       0.050700
     47 H031        15.1960    17.2510    -1.8020 h1         1 SIT       0.050700
     48 H062        10.8790    16.9670    -3.9220 hc         1 SIT       0.067700
     49 H063        10.7360    18.1070    -2.5150 hc         1 SIT       0.067700
     50 H061        11.7230    18.5710    -3.8260 hc         1 SIT       0.067700
     51 H111        18.0920    16.2640     0.3170 h1         1 SIT       0.031700
     52 H132        16.5160    17.9590     2.3370 hc         1 SIT       0.061700
     53 H131        15.9630    16.6110     1.3320 hc         1 SIT       0.061700
     54 H141        20.6000    17.3200     0.0260 hc         1 SIT       0.043700
     55 H142        19.4900    17.4380    -1.3450 hc         1 SIT       0.043700
     56 H143        20.4260    18.8560    -0.8270 hc         1 SIT       0.043700
     57 H151        20.1630    18.7290     2.1800 ha         1 SIT       0.182000
     58 H171        16.8820    20.7330     1.5140 hc         1 SIT       0.063700
     59 H181        17.0180    23.1680     2.6020 hc         1 SIT       0.043200
     60 H182        16.9700    21.7330     3.6160 hc         1 SIT       0.043200
     61 H192        19.5090    23.2600     2.7450 hc         1 SIT       0.049700
     62 H191        18.9950    22.9150     4.3890 hc         1 SIT       0.049700
     63 H201        19.3980    20.5410     4.1830 hc         1 SIT       0.067700
     64 H212        21.5860    20.1300     3.1490 h1         1 SIT       0.024200
     65 H211        21.4830    21.6750     2.2700 h1         1 SIT       0.024200
     66 H232        23.4270    22.4960     5.3010 h1         1 SIT       0.027033
     67 H231        23.5980    20.9790     4.3910 h1         1 SIT       0.027033
     68 H233        23.4830    22.5310     3.5240 h1         1 SIT       0.027033
     69 H241        17.6090    23.0680     0.3760 hc         1 SIT       0.038700
     70 H253        20.0420    22.9000     0.6400 hc         1 SIT       0.037700
     71 H252        20.0750    21.3550    -0.2220 hc         1 SIT       0.037700
     72 H251        19.6240    22.8430    -1.0660 hc         1 SIT       0.037700
     73 H261        16.1910    21.3420    -0.5620 h1         1 SIT       0.042700
     74 H281        18.7640    20.0640    -1.6070 h1         1 SIT       0.063700
     75 H301        18.1900    20.6870    -3.6910 h2         1 SIT       0.074700
     76 H311        16.7220    20.7200    -5.6420 h1         1 SIT       0.054700
     77 H331        14.8430    18.9600    -3.9810 h1         1 SIT       0.065700
     78 H351        16.4380    18.3380    -6.5220 h1         1 SIT       0.064700
     79 H371        16.7550    17.2780    -3.6510 h1         1 SIT       0.059700
     80 H381        17.3900    15.5460    -5.2340 h1         1 SIT       0.035200
     81 H382        18.8350    16.2250    -4.4610 h1         1 SIT       0.035200
     82 H411        20.2560    17.4690    -8.3600 hc         1 SIT       0.043867
     83 H412        20.5280    15.8450    -9.0220 hc         1 SIT       0.043867
     84 H413        18.9080    16.5710    -9.0930 hc         1 SIT       0.043867
     85 H421        20.8960    16.6760    -5.6360 ha         1 SIT       0.182000
     86 H431        22.5120    14.8320    -5.5680 ha         1 SIT       0.162000
     87 H432        21.5240    13.8830    -6.8170 ha         1 SIT       0.162000
     88 H443        18.6790    13.9610    -6.3180 hc         1 SIT       0.043867
     89 H441        17.7770    14.6070    -7.7110 hc         1 SIT       0.043867
     90 H442        19.3530    13.8340    -7.9480 hc         1 SIT       0.043867
     91 H121        18.2230    15.7380     2.5560 ho         1 SIT       0.445000
     92 H271        17.3470    23.2470    -1.6820 ho         1 SIT       0.504000
     93 H321        16.1540    21.8190    -3.2940 ho         1 SIT       0.513000
     94 H341        14.0520    20.6450    -5.5400 ho         1 SIT       0.455000
     95 H361        14.2700    17.3880    -6.1640 ho         1 SIT       0.508000
     96 H011        14.4260    19.9630     1.4890 hc         1 SIT       0.037367
     97 C05         12.6100    17.0700    -2.5820 c          1 SIT       0.596100
     98 C23         23.1180    21.9660     4.3920 c3         1 SIT       0.146900
     99 C40         19.4790    15.8550    -7.1060 c3         1 SIT       0.220200
@<TRIPOS>BOND
     1     1     7 1   
     2     1     8 1   
     3     1    10 1   
     4     1    11 1   
     5     2     3 1   
     6     2    43 1   
     7     2    44 1   
     8     2    96 1   
     9     3     4 1   
    10     3     6 1   
    11     3    45 1   
    12     4    32 1   
    13     4    46 1   
    14     4    47 1   
    15     5    48 1   
    16     5    49 1   
    17     5    50 1   
    18     5    97 1   
    19     6     7 2   
    20     6     9 1   
    21     7    21 1   
    22     8     9 1   
    23     8    34 1   
    24     8    51 1   
    25     9    52 1   
    26     9    53 1   
    27    10    54 1   
    28    10    55 1   
    29    10    56 1   
    30    11    12 2   
    31    11    57 1   
    32    12    13 1   
    33    12    16 1   
    34    13    14 1   
    35    13    18 1   
    36    13    58 1   
    37    14    15 1   
    38    14    59 1   
    39    14    60 1   
    40    15    16 1   
    41    15    61 1   
    42    15    62 1   
    43    16    17 1   
    44    16    63 1   
    45    17    35 1   
    46    17    64 1   
    47    17    65 1   
    48    18    19 1   
    49    18    20 1   
    50    18    69 1   
    51    19    70 1   
    52    19    71 1   
    53    19    72 1   
    54    20    21 1   
    55    20    36 1   
    56    20    73 1   
    57    21    37 1   
    58    21    74 1   
    59    22    23 1   
    60    22    37 1   
    61    22    42 1   
    62    22    75 1   
    63    23    24 1   
    64    23    38 1   
    65    23    76 1   
    66    24    25 1   
    67    24    39 1   
    68    24    77 1   
    69    25    26 1   
    70    25    40 1   
    71    25    78 1   
    72    26    27 1   
    73    26    42 1   
    74    26    79 1   
    75    27    41 1   
    76    27    80 1   
    77    27    81 1   
    78    28    82 1   
    79    28    83 1   
    80    28    84 1   
    81    28    99 1   
    82    29    30 2   
    83    29    85 1   
    84    29    99 1   
    85    30    86 1   
    86    30    87 1   
    87    31    88 1   
    88    31    89 1   
    89    31    90 1   
    90    31    99 1   
    91    32    97 1   
    92    33    97 2   
    93    34    91 1   
    94    35    98 1   
    95    36    92 1   
    96    38    93 1   
    97    39    94 1   
    98    40    95 1   
    99    41    99 1   
   100    66    98 1   
   101    67    98 1   
   102    68    98 1   
@<TRIPOS>SUBSTRUCTURE
     1 SIT         1 TEMP              0 ****  ****    0 ROOT
