@<TRIPOS>MOLECULE
SIU
   53    55     1     0     0
SMALL
abcg2


@<TRIPOS>ATOM
      1 C1          17.4860    65.7210    25.7410 c3         1 SIU      -0.210700
      2 C2          17.2360    64.4520    26.5760 c3         1 SIU       0.170000
      3 C3          15.6550    62.5760    26.4760 c          1 SIU       0.602100
      4 C5          17.5550    65.3240    24.2460 c          1 SIU       0.720000
      5 C6          17.0610    64.7690    28.0440 ca         1 SIU      -0.063300
      6 C8          14.2650    62.1770    26.0070 c3         1 SIU      -0.121100
      7 C9          13.2660    62.7220    26.9950 ca         1 SIU      -0.068300
      8 C11         12.1410    62.5970    29.1180 ca         1 SIU      -0.114000
      9 C12         12.6330    63.9380    26.7740 ca         1 SIU      -0.106000
     10 C13         13.0090    62.0520    28.1890 ca         1 SIU      -0.093000
     11 C15         11.7590    64.5000    27.7040 ca         1 SIU      -0.074300
     12 C16         11.5070    63.8190    28.8970 ca         1 SIU      -0.082300
     13 C17         10.5490    64.3600    29.9290 c6         1 SIU      -0.025100
     14 C18         10.2470    65.8410    29.7460 c6         1 SIU      -0.072400
     15 C19          9.9210    66.1340    28.2890 c6         1 SIU      -0.071400
     16 C20         11.1310    65.8400    27.4130 c6         1 SIU      -0.030100
     17 C21         15.8750    65.3200    28.5210 ca         1 SIU      -0.093500
     18 C22         15.7330    65.6530    29.8600 ca         1 SIU      -0.117000
     19 C23         16.7720    65.4500    30.7670 ca         1 SIU      -0.101300
     20 C24         17.9570    64.9000    30.2850 ca         1 SIU      -0.117000
     21 C25         18.0960    64.5610    28.9460 ca         1 SIU      -0.093500
     22 C26         16.6080    65.7870    32.2210 c3         1 SIU      -0.035800
     23 C27         18.7460    66.4420    26.1960 c3         1 SIU      -0.058100
     24 N4          16.0670    63.7770    26.0430 ns         1 SIU      -0.476900
     25 O10         18.6130    64.7930    23.8610 o          1 SIU      -0.729500
     26 O14         16.3060    61.8810    27.2410 o          1 SIU      -0.631100
     27 O7          16.5320    65.5440    23.5640 o          1 SIU      -0.729500
     28 H1          16.6270    66.3850    25.8890 hc         1 SIU       0.033700
     29 H2          18.1080    63.7990    26.4600 h1         1 SIU       0.080700
     30 H3          14.0630    62.5660    25.0080 hc         1 SIU       0.066700
     31 H4          14.2100    61.0890    25.9610 hc         1 SIU       0.066700
     32 H5          11.9480    62.0640    30.0430 ha         1 SIU       0.101000
     33 H6          12.8220    64.4710    25.8470 ha         1 SIU       0.118000
     34 H7          13.4890    61.1020    28.3920 ha         1 SIU       0.121000
     35 H8           9.6130    63.7940    29.8700 hc         1 SIU       0.039700
     36 H9          10.9460    64.1710    30.9300 hc         1 SIU       0.039700
     37 H10         11.1120    66.4390    30.0520 hc         1 SIU       0.037200
     38 H11          9.4200    66.1320    30.3970 hc         1 SIU       0.037200
     39 H12          9.6180    67.1750    28.1600 hc         1 SIU       0.035700
     40 H13          9.0720    65.5190    27.9740 hc         1 SIU       0.035700
     41 H14         11.8830    66.6210    27.5730 hc         1 SIU       0.049700
     42 H15         10.8630    65.8970    26.3550 hc         1 SIU       0.049700
     43 H16         15.0440    65.4870    27.8450 ha         1 SIU       0.114000
     44 H17         14.7990    66.0810    30.2050 ha         1 SIU       0.095500
     45 H18         18.7830    64.7300    30.9660 ha         1 SIU       0.095500
     46 H19         19.0270    64.1280    28.5990 ha         1 SIU       0.114000
     47 H20         16.1970    64.9430    32.7780 hc         1 SIU       0.029033
     48 H21         17.5610    66.0440    32.6830 hc         1 SIU       0.029033
     49 H22         15.9280    66.6270    32.3620 hc         1 SIU       0.029033
     50 H23         18.6610    66.7960    27.2240 hc         1 SIU       0.019700
     51 H24         19.6190    65.7910    26.1370 hc         1 SIU       0.019700
     52 H25         18.9400    67.3130    25.5680 hc         1 SIU       0.019700
     53 H26         15.4930    64.2840    25.3850 hn         1 SIU       0.342500
@<TRIPOS>BOND
     1     1     2 1   
     2     1     4 1   
     3     1    23 1   
     4     1    28 1   
     5     2     5 1   
     6     2    24 1   
     7     2    29 1   
     8     3     6 1   
     9     3    24 1   
    10     3    26 2   
    11     4    25 1   
    12     4    27 1   
    13     5    17 ar  
    14     5    21 ar  
    15     6     7 1   
    16     6    30 1   
    17     6    31 1   
    18     7     9 ar  
    19     7    10 ar  
    20     8    10 ar  
    21     8    12 ar  
    22     8    32 1   
    23     9    11 ar  
    24     9    33 1   
    25    10    34 1   
    26    11    12 ar  
    27    11    16 1   
    28    12    13 1   
    29    13    14 1   
    30    13    35 1   
    31    13    36 1   
    32    14    15 1   
    33    14    37 1   
    34    14    38 1   
    35    15    16 1   
    36    15    39 1   
    37    15    40 1   
    38    16    41 1   
    39    16    42 1   
    40    17    18 ar  
    41    17    43 1   
    42    18    19 ar  
    43    18    44 1   
    44    19    20 ar  
    45    19    22 1   
    46    20    21 ar  
    47    20    45 1   
    48    21    46 1   
    49    22    47 1   
    50    22    48 1   
    51    22    49 1   
    52    23    50 1   
    53    23    51 1   
    54    23    52 1   
    55    24    53 1   
@<TRIPOS>SUBSTRUCTURE
     1 SIU         1 TEMP              0 ****  ****    0 ROOT
