@<TRIPOS>MOLECULE
SIU
   53    55     1     0     0
SMALL
No Charge or Current Charge


@<TRIPOS>ATOM
      1 C1          18.0850    65.3690    25.4500 c3         1 SIU      -0.210700
      2 C2          17.2850    64.5270    26.4770 c3         1 SIU       0.170000
      3 C3          15.5810    62.7030    26.2130 c          1 SIU       0.602100
      4 C5          18.4890    64.5060    24.2370 c          1 SIU       0.720000
      5 C6          16.8390    65.3130    27.7130 ca         1 SIU      -0.063300
      6 C8          14.1680    62.4320    25.6850 c3         1 SIU      -0.121100
      7 C9          13.1350    62.6820    26.7840 ca         1 SIU      -0.068300
      8 C11         11.2940    61.9060    28.1820 ca         1 SIU      -0.114000
      9 C12         13.0980    63.9210    27.4540 ca         1 SIU      -0.106000
     10 C13         12.2220    61.6770    27.1520 ca         1 SIU      -0.093000
     11 C15         12.1780    64.1560    28.4920 ca         1 SIU      -0.074300
     12 C16         11.2700    63.1370    28.8650 ca         1 SIU      -0.082300
     13 C17         10.2440    63.3510    29.9850 c6         1 SIU      -0.025100
     14 C18         10.5760    64.5490    30.9030 c6         1 SIU      -0.072400
     15 C19         10.9530    65.7870    30.0650 c6         1 SIU      -0.071400
     16 C20         12.2150    65.5060    29.2190 c6         1 SIU      -0.030100
     17 C21         16.0680    66.4890    27.5900 ca         1 SIU      -0.093500
     18 C22         15.6200    67.1710    28.7340 ca         1 SIU      -0.117000
     19 C23         15.9320    66.6880    30.0170 ca         1 SIU      -0.101300
     20 C24         16.6960    65.5140    30.1440 ca         1 SIU      -0.117000
     21 C25         17.1440    64.8300    29.0010 ca         1 SIU      -0.093500
     22 C26         15.4330    67.4190    31.2550 c3         1 SIU      -0.035800
     23 C27         19.3250    66.0540    26.0790 c3         1 SIU      -0.058100
     24 N4          16.1030    63.9270    25.8640 ns         1 SIU      -0.476900
     25 O10         19.2440    63.5620    24.4150 o          1 SIU      -0.729500
     26 O14         16.1810    61.9110    26.9280 o          1 SIU      -0.631100
     27 O7          18.0510    64.8190    23.1400 o          1 SIU      -0.729500
     28 H1          17.4290    66.1660    25.0800 hc         1 SIU       0.033700
     29 H2          17.9460    63.7140    26.8090 h1         1 SIU       0.080700
     30 H3          13.9490    63.0960    24.8410 hc         1 SIU       0.066700
     31 H4          14.1180    61.3890    25.3510 hc         1 SIU       0.066700
     32 H5          10.5950    61.1190    28.4560 ha         1 SIU       0.101000
     33 H6          13.7950    64.7080    27.1810 ha         1 SIU       0.118000
     34 H7          12.2310    60.7150    26.6450 ha         1 SIU       0.121000
     35 H8           9.2560    63.5090    29.5300 hc         1 SIU       0.039700
     36 H9          10.1570    62.4410    30.5940 hc         1 SIU       0.039700
     37 H10         11.4100    64.2860    31.5690 hc         1 SIU       0.037200
     38 H11          9.7170    64.7750    31.5490 hc         1 SIU       0.037200
     39 H12         11.1270    66.6510    30.7200 hc         1 SIU       0.035700
     40 H13         10.1160    66.0550    29.4050 hc         1 SIU       0.035700
     41 H14         13.0970    65.5240    29.8740 hc         1 SIU       0.049700
     42 H15         12.3580    66.3210    28.4970 hc         1 SIU       0.049700
     43 H16         15.8030    66.8710    26.6070 ha         1 SIU       0.114000
     44 H17         15.0220    68.0720    28.6200 ha         1 SIU       0.095500
     45 H18         16.9370    65.1250    31.1310 ha         1 SIU       0.095500
     46 H19         17.7220    63.9160    29.1180 ha         1 SIU       0.114000
     47 H20         14.4590    67.0290    31.5710 hc         1 SIU       0.029033
     48 H21         16.1300    67.3030    32.0940 hc         1 SIU       0.029033
     49 H22         15.3200    68.4930    31.0670 hc         1 SIU       0.029033
     50 H23         19.0300    66.7630    26.8610 hc         1 SIU       0.019700
     51 H24         19.9990    65.3130    26.5250 hc         1 SIU       0.019700
     52 H25         19.8830    66.6100    25.3160 hc         1 SIU       0.019700
     53 H26         15.5360    64.5060    25.2570 hn         1 SIU       0.342500
@<TRIPOS>BOND
     1     1     2 1   
     2     1     4 1   
     3     1    23 1   
     4     1    28 1   
     5     2     5 1   
     6     2    24 1   
     7     2    29 1   
     8     3     6 1   
     9     3    24 1   
    10     3    26 2   
    11     4    25 1   
    12     4    27 1   
    13     5    17 ar  
    14     5    21 ar  
    15     6     7 1   
    16     6    30 1   
    17     6    31 1   
    18     7     9 ar  
    19     7    10 ar  
    20     8    10 ar  
    21     8    12 ar  
    22     8    32 1   
    23     9    11 ar  
    24     9    33 1   
    25    10    34 1   
    26    11    12 ar  
    27    11    16 1   
    28    12    13 1   
    29    13    14 1   
    30    13    35 1   
    31    13    36 1   
    32    14    15 1   
    33    14    37 1   
    34    14    38 1   
    35    15    16 1   
    36    15    39 1   
    37    15    40 1   
    38    16    41 1   
    39    16    42 1   
    40    17    18 ar  
    41    17    43 1   
    42    18    19 ar  
    43    18    44 1   
    44    19    20 ar  
    45    19    22 1   
    46    20    21 ar  
    47    20    45 1   
    48    21    46 1   
    49    22    47 1   
    50    22    48 1   
    51    22    49 1   
    52    23    50 1   
    53    23    51 1   
    54    23    52 1   
    55    24    53 1   
@<TRIPOS>SUBSTRUCTURE
     1 SIU         1 TEMP              0 ****  ****    0 ROOT
