@<TRIPOS>MOLECULE
SIV
   21    22     1     0     0
SMALL
No Charge or Current Charge


@<TRIPOS>ATOM
      1 C02         38.8370    37.5040    62.7300 c          1 SIV       0.648100
      2 C03         38.2990    37.7340    64.2030 c5         1 SIV       0.269000
      3 C06         39.2650    38.8980    64.6470 c5         1 SIV       0.347000
      4 C08         39.4150    39.6790    63.3090 c5         1 SIV       0.158300
      5 C09         40.8660    40.2750    63.3840 c5         1 SIV       0.131300
      6 C11         41.4860    39.5180    64.6110 c5         1 SIV       0.123600
      7 O01         38.7810    36.4740    62.0690 o          1 SIV      -0.455000
      8 O04         38.3370    36.5770    65.0490 oh         1 SIV      -0.705500
      9 O05         36.9320    38.1540    64.1710 oh         1 SIV      -0.705500
     10 O07         38.8240    39.6340    65.7850 oh         1 SIV      -0.643000
     11 O10         40.8540    41.7040    63.5600 oh         1 SIV      -0.703000
     12 O12         40.5940    38.4110    64.8690 os         1 SIV      -0.453000
     13 O13         39.3960    38.6680    62.2570 os         1 SIV      -0.421100
     14 H081        38.6250    40.4250    63.1490 h1         1 SIV       0.123700
     15 H091        41.4180    40.0160    62.4680 h1         1 SIV       0.078700
     16 H111        42.4960    39.1380    64.4060 h1         1 SIV       0.068200
     17 H112        41.5290    40.1570    65.5040 h1         1 SIV       0.068200
     18 H041        38.0690    35.8140    64.4850 ho         1 SIV       0.537500
     19 H051        36.8130    38.7120    64.9760 ho         1 SIV       0.537500
     20 H071        39.0830    39.0810    66.5540 ho         1 SIV       0.480000
     21 H101        41.7840    42.0220    63.4660 ho         1 SIV       0.514000
@<TRIPOS>BOND
     1     1     2 1   
     2     1     7 2   
     3     1    13 1   
     4     2     3 1   
     5     2     8 1   
     6     2     9 1   
     7     3     4 1   
     8     3    10 1   
     9     3    12 1   
    10     4     5 1   
    11     4    13 1   
    12     4    14 1   
    13     5     6 1   
    14     5    11 1   
    15     5    15 1   
    16     6    12 1   
    17     6    16 1   
    18     6    17 1   
    19     8    18 1   
    20     9    19 1   
    21    10    20 1   
    22    11    21 1   
@<TRIPOS>SUBSTRUCTURE
     1 SIV         1 TEMP              0 ****  ****    0 ROOT
