@<TRIPOS>MOLECULE
SIV
   21    22     1     0     0
SMALL
abcg2


@<TRIPOS>ATOM
      1 C02         38.9280    37.4980    62.8090 c          1 SIV       0.648100
      2 C03         38.4190    37.7380    64.2410 c5         1 SIV       0.269000
      3 C06         39.2140    38.9990    64.6480 c5         1 SIV       0.347000
      4 C08         39.4540    39.7020    63.3050 c5         1 SIV       0.158300
      5 C09         40.8520    40.2870    63.4290 c5         1 SIV       0.131300
      6 C11         41.5340    39.3140    64.3910 c5         1 SIV       0.123600
      7 O01         38.8740    36.4800    62.1790 o          1 SIV      -0.455000
      8 O04         38.6460    36.6760    65.0980 oh         1 SIV      -0.705500
      9 O05         37.0580    38.0510    64.0930 oh         1 SIV      -0.705500
     10 O07         38.5100    39.8220    65.5340 oh         1 SIV      -0.643000
     11 O10         40.6950    41.5940    63.9650 oh         1 SIV      -0.703000
     12 O12         40.4800    38.6500    65.1320 os         1 SIV      -0.453000
     13 O13         39.4630    38.6340    62.3230 os         1 SIV      -0.421100
     14 H081        38.6960    40.4320    63.0380 h1         1 SIV       0.123700
     15 H091        41.3540    40.3140    62.4590 h1         1 SIV       0.078700
     16 H111        42.1020    38.5520    63.8550 h1         1 SIV       0.068200
     17 H112        42.1880    39.8300    65.0940 h1         1 SIV       0.068200
     18 H041        38.2090    35.8900    64.7360 ho         1 SIV       0.537500
     19 H051        36.8260    38.6820    64.7960 ho         1 SIV       0.537500
     20 H071        38.6290    39.4720    66.4300 ho         1 SIV       0.480000
     21 H101        41.5710    41.9780    64.0970 ho         1 SIV       0.514000
@<TRIPOS>BOND
     1     1     2 1   
     2     1     7 2   
     3     1    13 1   
     4     2     3 1   
     5     2     8 1   
     6     2     9 1   
     7     3     4 1   
     8     3    10 1   
     9     3    12 1   
    10     4     5 1   
    11     4    13 1   
    12     4    14 1   
    13     5     6 1   
    14     5    11 1   
    15     5    15 1   
    16     6    12 1   
    17     6    16 1   
    18     6    17 1   
    19     8    18 1   
    20     9    19 1   
    21    10    20 1   
    22    11    21 1   
@<TRIPOS>SUBSTRUCTURE
     1 SIV         1 TEMP              0 ****  ****    0 ROOT
