@<TRIPOS>MOLECULE
SIX
   64    68     1     0     0
SMALL
bcc


@<TRIPOS>ATOM
      1 O            4.0760    -1.1540     0.1400 o          1 SIX      -0.594100
      2 C7           3.7740     0.0140     0.3410 c          1 SIX       0.667100
      3 N            4.6810     0.9950     0.4240 ns         1 SIX      -0.576900
      4 C8           6.1040     0.7630     0.3000 c3         1 SIX       0.105000
      5 C9           6.8780     2.0450     0.5890 c3         1 SIX      -0.007100
      6 C10          8.3490     1.8430     0.4500 cc         1 SIX      -0.271600
      7 C12          9.2770     1.6380     1.4480 cd         1 SIX      -0.132300
      8 N2          10.4650     1.4750     0.8420 na         1 SIX      -0.002600
      9 N1          10.3910     1.5560    -0.4800 nd         1 SIX      -0.518800
     10 C11          9.1130     1.7770    -0.7320 cc         1 SIX       0.311200
     11 C6           2.3330     0.4470     0.5590 c3         1 SIX      -0.107100
     12 C5           1.3680    -0.4020    -0.2090 ca         1 SIX      -0.102300
     13 C            1.3680    -0.3970    -1.5930 ca         1 SIX       0.147900
     14 F            2.2620     0.3870    -2.2250 f          1 SIX      -0.143900
     15 C4           0.4370    -1.2210     0.4200 ca         1 SIX      -0.090000
     16 C3          -0.4640    -2.0090    -0.2920 ca         1 SIX      -0.097300
     17 C2          -0.4170    -1.9680    -1.6830 ca         1 SIX      -0.094000
     18 C1           0.4990    -1.1610    -2.3430 ca         1 SIX      -0.163000
     19 C13         -1.4560    -2.8850     0.4310 c6         1 SIX      -0.010400
     20 C17         -2.9180    -2.5380     0.0960 c6         1 SIX      -0.097700
     21 C16         -3.8590    -3.5010     0.8320 c6         1 SIX       0.154800
     22 N3          -3.5860    -4.9080     0.6020 n7         1 SIX      -0.790200
     23 C15         -2.2040    -5.2470     0.8910 c6         1 SIX       0.147800
     24 C14         -1.1950    -4.3710     0.1570 c6         1 SIX      -0.108400
     25 C18         -3.2060    -1.0930     0.4610 c3         1 SIX       0.145400
     26 O1          -4.5340    -0.7860     0.0750 os         1 SIX      -0.324900
     27 C19         -4.9950     0.4690     0.2630 ca         1 SIX       0.152100
     28 C25         -6.3090     0.6900    -0.1930 ca         1 SIX      -0.152000
     29 C24         -6.8200     1.9490    -0.0270 ca         1 SIX       0.090100
     30 O3          -8.0350     2.4140    -0.4000 os         1 SIX      -0.318900
     31 C23         -8.1480     3.7150     0.1680 c5         1 SIX       0.327200
     32 O2          -6.8440     4.1130     0.5570 os         1 SIX      -0.319900
     33 C22         -6.0950     2.9760     0.5600 ca         1 SIX       0.011100
     34 C21         -4.8190     2.7740     1.0100 ca         1 SIX      -0.075000
     35 C20         -4.2660     1.4920     0.8560 ca         1 SIX      -0.225000
     36 H1           4.3610     1.9420     0.5510 hn         1 SIX       0.310500
     37 H2           6.4150    -0.0190     0.9970 h1         1 SIX       0.056200
     38 H3           6.3440     0.4060    -0.7060 h1         1 SIX       0.056200
     39 H4           6.5430     2.8310    -0.0950 hc         1 SIX       0.046200
     40 H5           6.6440     2.3890     1.5990 hc         1 SIX       0.046200
     41 H6           9.1740     1.6050     2.5200 h4         1 SIX       0.172000
     42 H7          11.3550     1.3140     1.2850 hn         1 SIX       0.321700
     43 H8           8.7690     1.8870    -1.7500 h4         1 SIX       0.039100
     44 H9           2.1240     0.3540     1.6280 hc         1 SIX       0.065200
     45 H10          2.2060     1.5050     0.3150 hc         1 SIX       0.065200
     46 H11          0.4140    -1.2400     1.5040 ha         1 SIX       0.131000
     47 H12         -1.0980    -2.5680    -2.2740 ha         1 SIX       0.136000
     48 H13          0.5360    -1.1280    -3.4250 ha         1 SIX       0.152000
     49 H14         -1.3210    -2.7220     1.5080 hc         1 SIX       0.053700
     50 H15         -3.0670    -2.6620    -0.9850 hc         1 SIX       0.062700
     51 H16         -3.7800    -3.3090     1.9100 h1         1 SIX       0.060700
     52 H17         -4.8950    -3.3020     0.5550 h1         1 SIX       0.060700
     53 H18         -3.7870    -5.1300    -0.3670 hn         1 SIX       0.350800
     54 H20         -2.0470    -5.1520     1.9710 h1         1 SIX       0.054700
     55 H21         -2.0400    -6.2980     0.6440 h1         1 SIX       0.054700
     56 H22         -1.2590    -4.5650    -0.9190 hc         1 SIX       0.051200
     57 H23         -0.1780    -4.6270     0.4660 hc         1 SIX       0.051200
     58 H24         -3.0760    -0.9510     1.5420 h1         1 SIX       0.039700
     59 H25         -2.5030    -0.4220    -0.0470 h1         1 SIX       0.039700
     60 H26         -6.8770    -0.1060    -0.6570 ha         1 SIX       0.165000
     61 H27         -8.5410     4.4070    -0.5770 h2         1 SIX       0.064200
     62 H28         -8.8070     3.6780     1.0420 h2         1 SIX       0.064200
     63 H29         -4.2430     3.5670     1.4680 ha         1 SIX       0.149000
     64 H30         -3.2600     1.3280     1.2140 ha         1 SIX       0.140000
@<TRIPOS>BOND
     1     1     2 2   
     2     2     3 1   
     3     2    11 1   
     4     3     4 1   
     5     3    36 1   
     6     4     5 1   
     7     4    37 1   
     8     4    38 1   
     9     5     6 1   
    10     5    39 1   
    11     5    40 1   
    12     6     7 2   
    13     6    10 1   
    14     7     8 1   
    15     7    41 1   
    16     8     9 1   
    17     8    42 1   
    18     9    10 2   
    19    10    43 1   
    20    11    12 1   
    21    11    44 1   
    22    11    45 1   
    23    12    13 ar  
    24    12    15 ar  
    25    13    14 1   
    26    13    18 ar  
    27    15    16 ar  
    28    15    46 1   
    29    16    17 ar  
    30    16    19 1   
    31    17    18 ar  
    32    17    47 1   
    33    18    48 1   
    34    19    20 1   
    35    19    24 1   
    36    19    49 1   
    37    20    21 1   
    38    20    25 1   
    39    20    50 1   
    40    21    22 1   
    41    21    51 1   
    42    21    52 1   
    43    22    23 1   
    44    22    53 1   
    45    23    24 1   
    46    23    54 1   
    47    23    55 1   
    48    24    56 1   
    49    24    57 1   
    50    25    26 1   
    51    25    58 1   
    52    25    59 1   
    53    26    27 1   
    54    27    28 ar  
    55    27    35 ar  
    56    28    29 ar  
    57    28    60 1   
    58    29    30 1   
    59    29    33 ar  
    60    30    31 1   
    61    31    32 1   
    62    31    61 1   
    63    31    62 1   
    64    32    33 1   
    65    33    34 ar  
    66    34    35 ar  
    67    34    63 1   
    68    35    64 1   
@<TRIPOS>SUBSTRUCTURE
     1 SIX         1 TEMP              0 ****  ****    0 ROOT
