@<TRIPOS>MOLECULE
SIX
   64    68     1     0     0
SMALL
No Charge or Current Charge


@<TRIPOS>ATOM
      1 O            4.0410    -0.2940     1.3720 o          1 SIX      -0.594100
      2 C7           3.7140     0.5800     0.5800 c          1 SIX       0.600100
      3 N            4.6100     1.1530    -0.2950 ns         1 SIX      -0.509900
      4 C8           6.0370     0.8200    -0.3710 c3         1 SIX       0.105000
      5 C9           6.8580     1.4620     0.7670 c3         1 SIX      -0.007100
      6 C10          8.3270     1.1470     0.6720 cc         1 SIX      -0.206300
      7 C12          9.0820     0.3020     1.4300 cd         1 SIX      -0.165000
      8 N2          10.3770     0.4010     0.9050 na         1 SIX      -0.002200
      9 N1          10.4500     1.2910    -0.1660 nd         1 SIX      -0.518800
     10 C11          9.2060     1.7120    -0.2690 cc         1 SIX       0.245900
     11 C6           2.2760     1.1040     0.4790 c3         1 SIX      -0.107100
     12 C5           1.3910     0.1210    -0.2900 ca         1 SIX      -0.102300
     13 C            1.4010     0.0840    -1.7000 ca         1 SIX       0.183000
     14 F            2.1960     0.9240    -2.4020 f          1 SIX      -0.179000
     15 C4           0.5560    -0.7700     0.4130 ca         1 SIX      -0.072000
     16 C3          -0.2650    -1.6860    -0.2770 ca         1 SIX      -0.097300
     17 C2          -0.2440    -1.7070    -1.6870 ca         1 SIX      -0.076000
     18 C1           0.5880    -0.8240    -2.3940 ca         1 SIX      -0.145000
     19 C13         -1.1790    -2.6400     0.5110 c6         1 SIX      -0.010400
     20 C17         -2.6920    -2.4180     0.2000 c6         1 SIX      -0.097700
     21 C16         -3.5590    -3.4340     0.9970 c6         1 SIX       0.154800
     22 N3          -3.1410    -4.8340     0.7320 n7         1 SIX      -0.845400
     23 C15         -1.7170    -5.0770     1.0640 c6         1 SIX       0.147800
     24 C14         -0.7980    -4.1250     0.2650 c6         1 SIX      -0.108400
     25 C18         -3.1260    -0.9530     0.4920 c3         1 SIX       0.168600
     26 O1          -4.5080    -0.7870     0.1330 os         1 SIX      -0.348100
     27 C19         -5.1660     0.4160     0.2810 ca         1 SIX       0.152100
     28 C25         -6.5220     0.4720    -0.0960 ca         1 SIX      -0.134000
     29 C24         -7.2030     1.6850     0.0500 ca         1 SIX       0.090100
     30 O3          -8.5030     1.9090    -0.2700 os         1 SIX      -0.342100
     31 C23         -8.6970     3.3150     0.1200 c5         1 SIX       0.373600
     32 O2          -7.4190     3.8720     0.5950 os         1 SIX      -0.343100
     33 C22         -6.5870     2.8010     0.5410 ca         1 SIX       0.011100
     34 C21         -5.2400     2.7880     0.9250 ca         1 SIX      -0.057000
     35 C20         -4.5240     1.5770     0.7930 ca         1 SIX      -0.207000
     36 H1           4.2430     1.8510    -0.9310 hn         1 SIX       0.310500
     37 H2           6.1530    -0.2710    -0.3350 h1         1 SIX       0.056200
     38 H3           6.4230     1.1670    -1.3380 h1         1 SIX       0.056200
     39 H4           6.7140     2.5490     0.7420 hc         1 SIX       0.046200
     40 H5           6.4700     1.1170     1.7330 hc         1 SIX       0.046200
     41 H6           8.8230    -0.3380     2.2670 h4         1 SIX       0.154000
     42 H7          11.2010    -0.1010     1.2370 hn         1 SIX       0.372000
     43 H8           8.9620     2.4330    -1.0390 h4         1 SIX       0.039100
     44 H9           1.8850     1.2400     1.4940 hc         1 SIX       0.065200
     45 H10          2.2700     2.0720    -0.0360 hc         1 SIX       0.065200
     46 H11          0.5460    -0.7500     1.5000 ha         1 SIX       0.113000
     47 H12         -0.8710    -2.4040    -2.2370 ha         1 SIX       0.118000
     48 H13          0.6040    -0.8420    -3.4800 ha         1 SIX       0.134000
     49 H14         -1.0340    -2.4450     1.5840 hc         1 SIX       0.053700
     50 H15         -2.8660    -2.5820    -0.8720 hc         1 SIX       0.062700
     51 H16         -3.4760    -3.2230     2.0740 h1         1 SIX       0.060700
     52 H17         -4.6190    -3.3150     0.7230 h1         1 SIX       0.060700
     53 H18         -3.2750    -5.0260    -0.2680 hn         1 SIX       0.406000
     54 H20         -1.5580    -4.9250     2.1420 h1         1 SIX       0.054700
     55 H21         -1.4560    -6.1210     0.8360 h1         1 SIX       0.054700
     56 H22         -0.8660    -4.3660    -0.8040 hc         1 SIX       0.051200
     57 H23          0.2470    -4.2950     0.5560 hc         1 SIX       0.051200
     58 H24         -2.9740    -0.7390     1.5580 h1         1 SIX       0.039700
     59 H25         -2.5000    -0.2670    -0.0930 h1         1 SIX       0.039700
     60 H26         -7.0270    -0.4050    -0.4900 ha         1 SIX       0.147000
     61 H27         -9.0490     3.8900    -0.7450 h2         1 SIX       0.064200
     62 H28         -9.4350     3.3660     0.9290 h2         1 SIX       0.064200
     63 H29         -4.7640     3.6850     1.3130 ha         1 SIX       0.131000
     64 H30         -3.4790     1.5600     1.0890 ha         1 SIX       0.122000
@<TRIPOS>BOND
     1     1     2 2   
     2     2     3 1   
     3     2    11 1   
     4     3     4 1   
     5     3    36 1   
     6     4     5 1   
     7     4    37 1   
     8     4    38 1   
     9     5     6 1   
    10     5    39 1   
    11     5    40 1   
    12     6     7 2   
    13     6    10 1   
    14     7     8 1   
    15     7    41 1   
    16     8     9 1   
    17     8    42 1   
    18     9    10 2   
    19    10    43 1   
    20    11    12 1   
    21    11    44 1   
    22    11    45 1   
    23    12    13 ar  
    24    12    15 ar  
    25    13    14 1   
    26    13    18 ar  
    27    15    16 ar  
    28    15    46 1   
    29    16    17 ar  
    30    16    19 1   
    31    17    18 ar  
    32    17    47 1   
    33    18    48 1   
    34    19    20 1   
    35    19    24 1   
    36    19    49 1   
    37    20    21 1   
    38    20    25 1   
    39    20    50 1   
    40    21    22 1   
    41    21    51 1   
    42    21    52 1   
    43    22    23 1   
    44    22    53 1   
    45    23    24 1   
    46    23    54 1   
    47    23    55 1   
    48    24    56 1   
    49    24    57 1   
    50    25    26 1   
    51    25    58 1   
    52    25    59 1   
    53    26    27 1   
    54    27    28 ar  
    55    27    35 ar  
    56    28    29 ar  
    57    28    60 1   
    58    29    30 1   
    59    29    33 ar  
    60    30    31 1   
    61    31    32 1   
    62    31    61 1   
    63    31    62 1   
    64    32    33 1   
    65    33    34 ar  
    66    34    35 ar  
    67    34    63 1   
    68    35    64 1   
@<TRIPOS>SUBSTRUCTURE
     1 SIX         1 TEMP              0 ****  ****    0 ROOT
