@<TRIPOS>MOLECULE
SIY
   93    96     1     0     0
SMALL
abcg2


@<TRIPOS>ATOM
      1 C01         14.2460    17.6690    -1.1490 c3         1 SIY      -0.086100
      2 C02         14.9940    18.7760    -0.4020 c3         1 SIY      -0.018500
      3 C03         14.4040    18.9390     1.0010 c3         1 SIY      -0.086100
      4 C04         16.4710    18.5060    -0.3140 c2         1 SIY      -0.077400
      5 C05         17.5020    19.2370    -0.7630 c2         1 SIY      -0.144400
      6 C06         18.8350    18.6180    -0.3630 c5         1 SIY       0.043400
      7 C07         18.3840    17.1550    -0.1370 c5         1 SIY       0.169300
      8 C09         16.9740    17.2930     0.4250 c5         1 SIY      -0.090200
      9 C10         19.9180    18.6800    -1.4450 c3         1 SIY      -0.085100
     10 C11         19.4310    19.1740     0.9080 c2         1 SIY      -0.195200
     11 C12         19.0560    20.1860     1.6900 c2         1 SIY      -0.107400
     12 C13         17.8450    21.0920     1.5640 c5         1 SIY      -0.019500
     13 C14         17.7710    21.7650     2.9450 c5         1 SIY      -0.081400
     14 C15         19.2160    21.8860     3.4090 c5         1 SIY      -0.068400
     15 C16         19.8550    20.5800     2.9320 c5         1 SIY      -0.031500
     16 C17         21.3470    20.6980     2.6790 c3         1 SIY       0.164600
     17 C19         23.3650    21.2730     3.7050 c3         1 SIY       0.147900
     18 C20         17.9040    22.1150     0.3960 c3         1 SIY      -0.077700
     19 C21         19.3090    22.4950    -0.0630 c3         1 SIY      -0.083100
     20 C22         16.9780    21.7280    -0.7730 c3         1 SIY       0.168300
     21 C24         17.4250    20.5020    -1.5780 c3         1 SIY       0.237500
     22 C26         17.0520    20.2980    -3.9320 c6         1 SIY       0.361300
     23 C27         15.9270    20.5120    -4.9500 c6         1 SIY       0.116300
     24 C29         14.9610    19.3330    -4.9550 c6         1 SIY       0.179300
     25 C31         15.7400    18.0500    -5.1890 c6         1 SIY       0.152300
     26 C33         16.8830    17.9420    -4.1690 c6         1 SIY       0.132300
     27 C34         17.7650    16.7310    -4.3770 c3         1 SIY       0.163600
     28 C36         19.5180    16.0020    -5.8550 c3         1 SIY       0.220200
     29 C37         19.9090    16.2460    -7.3110 c3         1 SIY      -0.098100
     30 C38         20.6150    16.5440    -4.9690 c2         1 SIY      -0.243200
     31 C39         21.4130    15.8500    -4.1690 c2         1 SIY      -0.311000
     32 C40         19.2410    14.5190    -5.6340 c3         1 SIY      -0.098100
     33 O08         19.2930    16.4380     0.6540 oh         1 SIY      -0.649000
     34 O18         21.9830    21.0990     3.8680 os         1 SIY      -0.456000
     35 O23         16.8810    22.7870    -1.7000 oh         1 SIY      -0.719000
     36 O25         16.5120    20.3380    -2.6580 os         1 SIY      -0.461000
     37 O28         15.1780    21.6750    -4.7040 oh         1 SIY      -0.707000
     38 O30         14.0060    19.4650    -5.9790 oh         1 SIY      -0.651000
     39 O32         14.8510    16.9650    -5.0570 oh         1 SIY      -0.708000
     40 O35         18.3420    16.7820    -5.6570 os         1 SIY      -0.458000
     41 O41         17.7090    19.0930    -4.2150 os         1 SIY      -0.467000
     42 H011        13.1850    17.9150    -1.2180 hc         1 SIY       0.034867
     43 H012        14.6170    17.5360    -2.1650 hc         1 SIY       0.034867
     44 H013        14.3250    16.7090    -0.6360 hc         1 SIY       0.034867
     45 H021        14.8260    19.7070    -0.9430 hc         1 SIY       0.072700
     46 H033        14.8780    19.7540     1.5510 hc         1 SIY       0.034867
     47 H031        13.3370    19.1610     0.9400 hc         1 SIY       0.034867
     48 H032        14.5160    18.0290     1.5940 hc         1 SIY       0.034867
     49 H071        18.2960    16.6980    -1.1350 h1         1 SIY       0.029700
     50 H092        17.0000    17.4740     1.5070 hc         1 SIY       0.060200
     51 H091        16.3660    16.3990     0.2650 hc         1 SIY       0.060200
     52 H101        20.7590    18.0390    -1.1740 hc         1 SIY       0.043033
     53 H103        19.5330    18.3470    -2.4080 hc         1 SIY       0.043033
     54 H102        20.3140    19.6890    -1.5740 hc         1 SIY       0.043033
     55 H111        20.3450    18.6570     1.1930 ha         1 SIY       0.181000
     56 H131        16.9450    20.4930     1.4250 hc         1 SIY       0.064700
     57 H141        17.2410    22.7190     2.9210 hc         1 SIY       0.043200
     58 H142        17.2240    21.1130     3.6320 hc         1 SIY       0.043200
     59 H152        19.7030    22.7440     2.9370 hc         1 SIY       0.049200
     60 H151        19.3030    22.0260     4.4870 hc         1 SIY       0.049200
     61 H161        19.6940    19.8130     3.7000 hc         1 SIY       0.067700
     62 H171        21.7620    19.7410     2.3330 h1         1 SIY       0.024200
     63 H172        21.5240    21.4300     1.8760 h1         1 SIY       0.024200
     64 H193        23.7830    21.5880     4.6600 h1         1 SIY       0.026700
     65 H192        23.8650    20.3460     3.3980 h1         1 SIY       0.026700
     66 H191        23.5990    22.0400     2.9560 h1         1 SIY       0.026700
     67 H201        17.4510    23.0320     0.7960 hc         1 SIY       0.037700
     68 H212        19.8940    22.8970     0.7640 hc         1 SIY       0.037367
     69 H211        19.8650    21.6460    -0.4620 hc         1 SIY       0.037367
     70 H213        19.2690    23.2640    -0.8330 hc         1 SIY       0.037367
     71 H221        15.9890    21.5070    -0.3410 h1         1 SIY       0.042700
     72 H241        18.4200    20.7210    -1.9850 h1         1 SIY       0.059700
     73 H261        17.8210    21.0730    -4.0560 h2         1 SIY       0.070700
     74 H271        16.4080    20.5550    -5.9380 h1         1 SIY       0.053700
     75 H291        14.4700    19.2730    -3.9710 h1         1 SIY       0.066700
     76 H311        16.1650    18.0930    -6.2010 h1         1 SIY       0.064700
     77 H331        16.4470    17.8290    -3.1680 h1         1 SIY       0.065700
     78 H342        17.1610    15.8250    -4.2370 h1         1 SIY       0.034700
     79 H341        18.5280    16.7140    -3.5890 h1         1 SIY       0.034700
     80 H371        20.1040    17.3030    -7.4940 hc         1 SIY       0.043533
     81 H373        20.8110    15.6880    -7.5600 hc         1 SIY       0.043533
     82 H372        19.1130    15.9210    -7.9840 hc         1 SIY       0.043533
     83 H381        20.7470    17.6220    -5.0360 ha         1 SIY       0.183000
     84 H391        22.1890    16.3400    -3.5950 ha         1 SIY       0.162500
     85 H392        21.3370    14.7760    -4.0530 ha         1 SIY       0.162500
     86 H403        18.9970    14.2880    -4.5960 hc         1 SIY       0.043533
     87 H402        18.4050    14.1990    -6.2580 hc         1 SIY       0.043533
     88 H401        20.1070    13.9180    -5.9100 hc         1 SIY       0.043533
     89 H081        19.0290    15.5130     0.6500 ho         1 SIY       0.443000
     90 H231        16.5880    23.5730    -1.2280 ho         1 SIY       0.503000
     91 H281        15.7120    22.4440    -4.9280 ho         1 SIY       0.512000
     92 H301        13.5520    20.3050    -5.8510 ho         1 SIY       0.457000
     93 H321        15.2240    16.2000    -5.5060 ho         1 SIY       0.507000
@<TRIPOS>BOND
     1     1     2 1   
     2     1    42 1   
     3     1    43 1   
     4     1    44 1   
     5     2     3 1   
     6     2     4 1   
     7     2    45 1   
     8     3    46 1   
     9     3    47 1   
    10     3    48 1   
    11     4     5 2   
    12     4     8 1   
    13     5     6 1   
    14     5    21 1   
    15     6     7 1   
    16     6     9 1   
    17     6    10 1   
    18     7     8 1   
    19     7    33 1   
    20     7    49 1   
    21     8    50 1   
    22     8    51 1   
    23     9    52 1   
    24     9    53 1   
    25     9    54 1   
    26    10    11 2   
    27    10    55 1   
    28    11    12 1   
    29    11    15 1   
    30    12    13 1   
    31    12    18 1   
    32    12    56 1   
    33    13    14 1   
    34    13    57 1   
    35    13    58 1   
    36    14    15 1   
    37    14    59 1   
    38    14    60 1   
    39    15    16 1   
    40    15    61 1   
    41    16    34 1   
    42    16    62 1   
    43    16    63 1   
    44    17    34 1   
    45    17    64 1   
    46    17    65 1   
    47    17    66 1   
    48    18    19 1   
    49    18    20 1   
    50    18    67 1   
    51    19    68 1   
    52    19    69 1   
    53    19    70 1   
    54    20    21 1   
    55    20    35 1   
    56    20    71 1   
    57    21    36 1   
    58    21    72 1   
    59    22    23 1   
    60    22    36 1   
    61    22    41 1   
    62    22    73 1   
    63    23    24 1   
    64    23    37 1   
    65    23    74 1   
    66    24    25 1   
    67    24    38 1   
    68    24    75 1   
    69    25    26 1   
    70    25    39 1   
    71    25    76 1   
    72    26    27 1   
    73    26    41 1   
    74    26    77 1   
    75    27    40 1   
    76    27    78 1   
    77    27    79 1   
    78    28    29 1   
    79    28    30 1   
    80    28    32 1   
    81    28    40 1   
    82    29    80 1   
    83    29    81 1   
    84    29    82 1   
    85    30    31 2   
    86    30    83 1   
    87    31    84 1   
    88    31    85 1   
    89    32    86 1   
    90    32    87 1   
    91    32    88 1   
    92    33    89 1   
    93    35    90 1   
    94    37    91 1   
    95    38    92 1   
    96    39    93 1   
@<TRIPOS>SUBSTRUCTURE
     1 SIY         1 TEMP              0 ****  ****    0 ROOT
