@<TRIPOS>MOLECULE
SIY
   93    96     1     0     0
SMALL
No Charge or Current Charge


@<TRIPOS>ATOM
      1 C01         14.2800    17.5220    -0.8300 c3         1 SIY      -0.086100
      2 C02         14.9040    18.7350    -0.1070 c3         1 SIY      -0.018500
      3 C03         14.0520    19.1860     1.1000 c3         1 SIY      -0.086100
      4 C04         16.3510    18.4540     0.2920 c2         1 SIY      -0.077400
      5 C05         17.4740    18.9910    -0.2210 c2         1 SIY      -0.144400
      6 C06         18.7220    18.3990     0.4410 c5         1 SIY       0.043400
      7 C07         18.1410    17.0690     1.0770 c5         1 SIY       0.169300
      8 C09         16.6870    17.4830     1.4080 c5         1 SIY      -0.090200
      9 C10         19.8240    18.0390    -0.5910 c3         1 SIY      -0.085100
     10 C11         19.3680    19.2510     1.5590 c2         1 SIY      -0.195200
     11 C12         18.9870    20.4680     2.0210 c2         1 SIY      -0.107400
     12 C13         17.7840    21.3370     1.6340 c5         1 SIY      -0.019500
     13 C14         17.5910    22.2410     2.8910 c5         1 SIY      -0.081400
     14 C15         19.0400    22.5480     3.3310 c5         1 SIY      -0.068400
     15 C16         19.7240    21.1580     3.1750 c5         1 SIY      -0.031500
     16 C17         21.2610    21.2540     2.9880 c3         1 SIY       0.164600
     17 C19         23.2410    22.1090     4.0780 c3         1 SIY       0.147900
     18 C20         17.9200    22.1120     0.2680 c3         1 SIY      -0.077700
     19 C21         19.3830    22.4150    -0.1750 c3         1 SIY      -0.083100
     20 C22         17.0760    21.4600    -0.8720 c3         1 SIY       0.168300
     21 C24         17.5900    20.0460    -1.3130 c3         1 SIY       0.237500
     22 C26         17.3460    19.9240    -3.7460 c6         1 SIY       0.361300
     23 C27         16.1940    20.3980    -4.6860 c6         1 SIY       0.116300
     24 C29         15.2330    19.2050    -4.9540 c6         1 SIY       0.179300
     25 C31         16.0190    17.9810    -5.5130 c6         1 SIY       0.152300
     26 C33         17.1800    17.6220    -4.5310 c6         1 SIY       0.132300
     27 C34         18.0880    16.4640    -5.0450 c3         1 SIY       0.163600
     28 C36         19.6090    15.8890    -6.9210 c3         1 SIY       0.220200
     29 C37         19.9530    16.4810    -8.3020 c3         1 SIY      -0.098100
     30 C38         20.8460    15.8940    -6.0310 c2         1 SIY      -0.243200
     31 C39         21.7800    14.9290    -5.9440 c2         1 SIY      -0.311000
     32 C40         18.9650    14.4840    -7.0690 c3         1 SIY      -0.098100
     33 O08         18.8500    16.5630     2.2170 oh         1 SIY      -0.649000
     34 O18         21.8160    21.9350     4.1280 os         1 SIY      -0.456000
     35 O23         16.9780    22.3690    -1.9940 oh         1 SIY      -0.719000
     36 O25         16.8340    19.5870    -2.4460 os         1 SIY      -0.461000
     37 O28         15.4680    21.5190    -4.1190 oh         1 SIY      -0.707000
     38 O30         14.1910    19.6040    -5.8630 oh         1 SIY      -0.651000
     39 O32         15.1180    16.8720    -5.7110 oh         1 SIY      -0.708000
     40 O35         18.6390    16.7940    -6.3480 os         1 SIY      -0.458000
     41 O41         18.0290    18.7780    -4.2930 os         1 SIY      -0.467000
     42 H011        13.2730    17.7640    -1.1910 hc         1 SIY       0.034867
     43 H012        14.8910    17.2370    -1.6950 hc         1 SIY       0.034867
     44 H013        14.2040    16.6570    -0.1620 hc         1 SIY       0.034867
     45 H021        14.8730    19.5560    -0.8290 hc         1 SIY       0.072700
     46 H033        14.4960    20.0680     1.5770 hc         1 SIY       0.034867
     47 H031        13.0370    19.4500     0.7780 hc         1 SIY       0.034867
     48 H032        13.9760    18.3900     1.8500 hc         1 SIY       0.034867
     49 H071        18.1060    16.2910     0.3010 h1         1 SIY       0.029700
     50 H092        16.6060    17.9770     2.3820 hc         1 SIY       0.060200
     51 H091        16.0220    16.6120     1.4190 hc         1 SIY       0.060200
     52 H101        20.5900    17.3970    -0.1400 hc         1 SIY       0.043033
     53 H103        19.4050    17.5000    -1.4500 hc         1 SIY       0.043033
     54 H102        20.3360    18.9310    -0.9680 hc         1 SIY       0.043033
     55 H111        20.2390    18.8010     2.0350 ha         1 SIY       0.181000
     56 H131        16.8800    20.7270     1.5690 hc         1 SIY       0.064700
     57 H141        17.0090    23.1480     2.6900 hc         1 SIY       0.043200
     58 H142        17.0600    21.6950     3.6800 hc         1 SIY       0.043200
     59 H152        19.4990    23.3150     2.6990 hc         1 SIY       0.049200
     60 H151        19.0900    22.9200     4.3610 hc         1 SIY       0.049200
     61 H161        19.5630    20.5700     4.0860 hc         1 SIY       0.067700
     62 H171        21.6900    20.2470     2.9020 h1         1 SIY       0.024200
     63 H172        21.4810    21.8030     2.0630 h1         1 SIY       0.024200
     64 H193        23.5920    22.6340     4.9760 h1         1 SIY       0.026700
     65 H192        23.7510    21.1390     4.0270 h1         1 SIY       0.026700
     66 H191        23.5310    22.7020     3.2010 h1         1 SIY       0.026700
     67 H201        17.4580    23.0940     0.4260 hc         1 SIY       0.037700
     68 H212        19.9030    23.0360     0.5600 hc         1 SIY       0.037367
     69 H211        19.9640    21.4950    -0.3080 hc         1 SIY       0.037367
     70 H213        19.4060    22.9630    -1.1240 hc         1 SIY       0.037367
     71 H221        16.0660    21.3290    -0.4660 h1         1 SIY       0.042700
     72 H241        18.6440    20.1470    -1.5940 h1         1 SIY       0.059700
     73 H261        18.0680    20.7510    -3.6560 h2         1 SIY       0.070700
     74 H271        16.6510    20.6990    -5.6400 h1         1 SIY       0.053700
     75 H291        14.7880    18.9100    -3.9900 h1         1 SIY       0.066700
     76 H311        16.4640    18.2750    -6.4760 h1         1 SIY       0.064700
     77 H331        16.7500    17.2990    -3.5720 h1         1 SIY       0.065700
     78 H342        17.4800    15.5520    -5.0960 h1         1 SIY       0.034700
     79 H341        18.8820    16.2970    -4.3060 h1         1 SIY       0.034700
     80 H371        20.3550    17.4960    -8.2000 hc         1 SIY       0.043533
     81 H373        20.7070    15.8670    -8.8090 hc         1 SIY       0.043533
     82 H372        19.0620    16.5260    -8.9410 hc         1 SIY       0.043533
     83 H381        20.9530    16.8050    -5.4380 ha         1 SIY       0.183000
     84 H391        22.6410    15.0310    -5.2820 ha         1 SIY       0.162500
     85 H392        21.7240    14.0100    -6.5290 ha         1 SIY       0.162500
     86 H403        18.8630    13.9870    -6.0980 hc         1 SIY       0.043533
     87 H402        17.9740    14.5570    -7.5320 hc         1 SIY       0.043533
     88 H401        19.5850    13.8410    -7.7060 hc         1 SIY       0.043533
     89 H081        18.3500    15.7810     2.5350 ho         1 SIY       0.443000
     90 H231        17.0210    23.2810    -1.6240 ho         1 SIY       0.503000
     91 H281        15.9790    21.7930    -3.3030 ho         1 SIY       0.512000
     92 H301        13.9740    20.5290    -5.6010 ho         1 SIY       0.457000
     93 H321        14.3080    17.2700    -6.1120 ho         1 SIY       0.507000
@<TRIPOS>BOND
     1     1     2 1   
     2     1    42 1   
     3     1    43 1   
     4     1    44 1   
     5     2     3 1   
     6     2     4 1   
     7     2    45 1   
     8     3    46 1   
     9     3    47 1   
    10     3    48 1   
    11     4     5 2   
    12     4     8 1   
    13     5     6 1   
    14     5    21 1   
    15     6     7 1   
    16     6     9 1   
    17     6    10 1   
    18     7     8 1   
    19     7    33 1   
    20     7    49 1   
    21     8    50 1   
    22     8    51 1   
    23     9    52 1   
    24     9    53 1   
    25     9    54 1   
    26    10    11 2   
    27    10    55 1   
    28    11    12 1   
    29    11    15 1   
    30    12    13 1   
    31    12    18 1   
    32    12    56 1   
    33    13    14 1   
    34    13    57 1   
    35    13    58 1   
    36    14    15 1   
    37    14    59 1   
    38    14    60 1   
    39    15    16 1   
    40    15    61 1   
    41    16    34 1   
    42    16    62 1   
    43    16    63 1   
    44    17    34 1   
    45    17    64 1   
    46    17    65 1   
    47    17    66 1   
    48    18    19 1   
    49    18    20 1   
    50    18    67 1   
    51    19    68 1   
    52    19    69 1   
    53    19    70 1   
    54    20    21 1   
    55    20    35 1   
    56    20    71 1   
    57    21    36 1   
    58    21    72 1   
    59    22    23 1   
    60    22    36 1   
    61    22    41 1   
    62    22    73 1   
    63    23    24 1   
    64    23    37 1   
    65    23    74 1   
    66    24    25 1   
    67    24    38 1   
    68    24    75 1   
    69    25    26 1   
    70    25    39 1   
    71    25    76 1   
    72    26    27 1   
    73    26    41 1   
    74    26    77 1   
    75    27    40 1   
    76    27    78 1   
    77    27    79 1   
    78    28    29 1   
    79    28    30 1   
    80    28    32 1   
    81    28    40 1   
    82    29    80 1   
    83    29    81 1   
    84    29    82 1   
    85    30    31 2   
    86    30    83 1   
    87    31    84 1   
    88    31    85 1   
    89    32    86 1   
    90    32    87 1   
    91    32    88 1   
    92    33    89 1   
    93    35    90 1   
    94    37    91 1   
    95    38    92 1   
    96    39    93 1   
@<TRIPOS>SUBSTRUCTURE
     1 SIY         1 TEMP              0 ****  ****    0 ROOT
