@<TRIPOS>MOLECULE
SIZ
   30    30     1     0     0
SMALL
No Charge or Current Charge


@<TRIPOS>ATOM
      1 F2          31.9780     2.4690   -16.0350 f          1 SIZ      -0.110500
      2 C8          32.2660     2.7420   -14.7390 c3         1 SIZ       0.094300
      3 F1          31.0900     2.7770   -14.0660 f          1 SIZ      -0.110500
      4 C7          33.2200     1.6870   -14.1440 c          1 SIZ       0.555100
      5 O7          34.3200     1.9750   -13.6900 o          1 SIZ      -0.593100
      6 N2          32.7490     0.3890   -14.1520 ns         1 SIZ      -0.461900
      7 C2          33.4730    -0.8100   -13.6530 c6         1 SIZ       0.094700
      8 C3          33.6090    -0.8270   -12.0960 c6         1 SIZ       0.160300
      9 O3          32.3190    -0.7820   -11.4640 oh         1 SIZ      -0.637000
     10 C4          34.3600    -2.1080   -11.6220 c6         1 SIZ       0.106300
     11 O4          33.5060    -3.2590   -11.8370 oh         1 SIZ      -0.693000
     12 C5          35.7160    -2.2050   -12.4030 c6         1 SIZ       0.151300
     13 C6          36.5740    -3.4520   -12.0070 c3         1 SIZ       0.169600
     14 O6          37.8410    -3.5070   -12.6920 oh         1 SIZ      -0.707000
     15 O5          35.4700    -2.2390   -13.8330 os         1 SIZ      -0.465000
     16 C1          34.8630    -1.0440   -14.3320 c6         1 SIZ       0.387300
     17 O1          34.7290    -1.2660   -15.7240 oh         1 SIZ      -0.634000
     18 H81         32.7370     3.7280   -14.6810 h2         1 SIZ       0.080700
     19 HN2         31.8230     0.2550   -14.5420 hn         1 SIZ       0.343500
     20 H2          32.8580    -1.6800   -13.9260 h1         1 SIZ       0.105700
     21 H3          34.2010     0.0500   -11.7920 h1         1 SIZ       0.054700
     22 H1          35.5320    -0.1900   -14.1490 h2         1 SIZ       0.043700
     23 HO3         32.0630    -1.7290   -11.3830 ho         1 SIZ       0.446000
     24 H4          34.5830    -2.0030   -10.5500 h1         1 SIZ       0.034700
     25 HO4         33.9090    -4.0250   -11.3660 ho         1 SIZ       0.503000
     26 H5          36.3170    -1.3130   -12.1740 h1         1 SIZ       0.054700
     27 H61         36.7380    -3.4230   -10.9210 h1         1 SIZ       0.027700
     28 H62         35.9940    -4.3590   -12.2270 h1         1 SIZ       0.027700
     29 HO6         38.2690    -4.3580   -12.4380 ho         1 SIZ       0.507000
     30 HO1         35.3280    -2.0240   -15.8860 ho         1 SIZ       0.465000
@<TRIPOS>BOND
     1     1     2 1   
     2     2     3 1   
     3     2     4 1   
     4     2    18 1   
     5     4     5 2   
     6     4     6 1   
     7     6     7 1   
     8     6    19 1   
     9     7     8 1   
    10     7    16 1   
    11     7    20 1   
    12     8     9 1   
    13     8    10 1   
    14     8    21 1   
    15     9    23 1   
    16    10    11 1   
    17    10    12 1   
    18    10    24 1   
    19    11    25 1   
    20    12    13 1   
    21    12    15 1   
    22    12    26 1   
    23    13    14 1   
    24    13    27 1   
    25    13    28 1   
    26    14    29 1   
    27    15    16 1   
    28    16    17 1   
    29    16    22 1   
    30    17    30 1   
@<TRIPOS>SUBSTRUCTURE
     1 SIZ         1 TEMP              0 ****  ****    0 ROOT
