@<TRIPOS>MOLECULE
SIZ
   30    30     1     0     0
SMALL
bcc


@<TRIPOS>ATOM
      1 F2          32.8980     3.3890   -15.4700 f          1 SIZ      -0.231800
      2 C8          32.2390     2.5880   -14.6000 c3         1 SIZ       0.336900
      3 F1          31.1850     2.0450   -15.2640 f          1 SIZ      -0.231800
      4 C7          33.2140     1.5230   -14.0890 c          1 SIZ       0.622100
      5 O7          34.2750     1.9030   -13.6250 o          1 SIZ      -0.593100
      6 N2          32.7910     0.2640   -14.1690 ns         1 SIZ      -0.528900
      7 C2          33.4950    -0.8980   -13.6630 c6         1 SIZ       0.094700
      8 C3          33.6830    -0.8680   -12.1440 c6         1 SIZ       0.137100
      9 O3          32.4290    -0.6660   -11.5530 oh         1 SIZ      -0.574800
     10 C4          34.3670    -2.1600   -11.6890 c6         1 SIZ       0.083100
     11 O4          33.4880    -3.2390   -11.8940 oh         1 SIZ      -0.570800
     12 C5          35.6700    -2.3140   -12.4770 c6         1 SIZ       0.128100
     13 C6          36.4210    -3.5760   -12.1150 c3         1 SIZ       0.146400
     14 O6          37.6980    -3.5340   -12.7060 oh         1 SIZ      -0.584800
     15 O5          35.4000    -2.3320   -13.8630 os         1 SIZ      -0.418600
     16 C1          34.8520    -1.1270   -14.3390 c6         1 SIZ       0.340900
     17 O1          34.6510    -1.2380   -15.6970 oh         1 SIZ      -0.571800
     18 H81         31.8580     3.1950   -13.7770 h2         1 SIZ       0.080700
     19 HN2         31.8950     0.0890   -14.5940 hn         1 SIZ       0.343500
     20 H2          32.8590    -1.7500   -13.9180 h1         1 SIZ       0.105700
     21 H3          34.3720    -0.0500   -11.8940 h1         1 SIZ       0.054700
     22 H1          35.5400    -0.3030   -14.0950 h2         1 SIZ       0.043700
     23 HO3         32.5580    -0.4850   -10.6170 ho         1 SIZ       0.407000
     24 H4          34.6210    -2.0510   -10.6240 h1         1 SIZ       0.034700
     25 HO4         33.7080    -3.9460   -11.2810 ho         1 SIZ       0.404000
     26 H5          36.3110    -1.4520   -12.2240 h1         1 SIZ       0.054700
     27 H61         36.4840    -3.6290   -11.0200 h1         1 SIZ       0.027700
     28 H62         35.8490    -4.4520   -12.4480 h1         1 SIZ       0.027700
     29 HO6         38.1410    -4.3650   -12.5190 ho         1 SIZ       0.408000
     30 HO1         35.4840    -1.0930   -16.1570 ho         1 SIZ       0.426000
@<TRIPOS>BOND
     1     1     2 1   
     2     2     3 1   
     3     2     4 1   
     4     2    18 1   
     5     4     5 2   
     6     4     6 1   
     7     6     7 1   
     8     6    19 1   
     9     7     8 1   
    10     7    16 1   
    11     7    20 1   
    12     8     9 1   
    13     8    10 1   
    14     8    21 1   
    15     9    23 1   
    16    10    11 1   
    17    10    12 1   
    18    10    24 1   
    19    11    25 1   
    20    12    13 1   
    21    12    15 1   
    22    12    26 1   
    23    13    14 1   
    24    13    27 1   
    25    13    28 1   
    26    14    29 1   
    27    15    16 1   
    28    16    17 1   
    29    16    22 1   
    30    17    30 1   
@<TRIPOS>SUBSTRUCTURE
     1 SIZ         1 TEMP              0 ****  ****    0 ROOT
