@<TRIPOS>MOLECULE
SJ0
   55    59     1     0     0
SMALL
abcg2


@<TRIPOS>ATOM
      1 C4         -43.0990    32.3510    -0.2150 cc         1 SJ0      -0.065000
      2 N3         -39.5430    31.2500    -5.4020 n3         1 SJ0      -0.711600
      3 C2         -43.3740    33.7290    -0.1420 cc         1 SJ0      -0.086000
      4 N1         -43.4360    35.6790     0.9830 nc         1 SJ0      -0.643100
      5 C7         -41.5550    29.6490    -0.1270 ca         1 SJ0       0.135100
      6 C6         -42.3420    30.2470     0.8710 ca         1 SJ0      -0.049000
      7 C5         -42.6200    31.6960     0.8890 cd         1 SJ0      -0.016000
      8 N5         -43.4930    26.4930     3.6580 n1         1 SJ0      -0.438000
      9 C15        -42.5580    28.0650     1.8300 ca         1 SJ0       0.382000
     10 N4         -41.8250    27.4950     0.8820 nb         1 SJ0      -0.598000
     11 C14        -41.3320    28.2660    -0.0670 ca         1 SJ0       0.247900
     12 C8         -40.3050    29.8900    -2.1480 c3         1 SJ0       0.165600
     13 C9         -39.9760    31.0210    -3.0960 c5         1 SJ0      -0.074700
     14 C13        -41.2130    31.6100    -3.8140 c5         1 SJ0      -0.072400
     15 C12        -40.9870    31.2600    -5.2810 c5         1 SJ0       0.153800
     16 C10        -39.0820    30.5200    -4.2400 c5         1 SJ0       0.161800
     17 C17        -42.8390    29.4240     1.8700 ca         1 SJ0      -0.074000
     18 C18        -42.4150    32.4240     2.0940 cd         1 SJ0      -0.158000
     19 C19        -42.6790    33.7530     2.1530 cc         1 SJ0      -0.073000
     20 N2         -43.1480    34.3820     1.0480 na         1 SJ0       0.332400
     21 C3         -43.8430    34.6930    -1.0260 cd         1 SJ0      -0.387600
     22 C1         -43.8540    35.8680    -0.2670 cd         1 SJ0       0.458200
     23 N          -44.2190    37.1550    -0.6130 ns         1 SJ0      -0.398400
     24 C          -44.6530    37.5740    -1.8330 c          1 SJ0       0.646100
     25 O          -44.7780    36.8240    -2.7850 o          1 SJ0      -0.581100
     26 C20        -44.9580    39.0250    -1.9030 cx         1 SJ0      -0.248700
     27 C22        -46.0710    39.4680    -2.8160 cx         1 SJ0      -0.094900
     28 C21        -44.6640    39.7430    -3.1960 cx         1 SJ0      -0.094900
     29 H3         -43.2930    31.8400    -1.1470 ha         1 SJ0       0.140000
     30 H15        -40.7280    27.7680    -0.8160 h4         1 SJ0       0.031100
     31 H4         -39.3900    29.4180    -1.7720 h1         1 SJ0       0.042200
     32 H5         -40.8970    29.1240    -2.6620 h1         1 SJ0       0.042200
     33 H          -39.4570    31.8010    -2.5340 hc         1 SJ0       0.078700
     34 H13        -41.2540    32.6910    -3.6770 hc         1 SJ0       0.057200
     35 H14        -42.1540    31.2030    -3.4390 hc         1 SJ0       0.057200
     36 H11        -41.4360    31.9790    -5.9700 h1         1 SJ0       0.038200
     37 H12        -41.4220    30.2710    -5.5100 h1         1 SJ0       0.038200
     38 H8         -39.4300    31.3190    -7.4830 h1         1 SJ0       0.032700
     39 H10        -37.9690    30.7530    -6.6780 h1         1 SJ0       0.032700
     40 H9         -39.3680    29.6750    -6.8220 h1         1 SJ0       0.032700
     41 H6         -38.0200    30.6960    -4.0560 h1         1 SJ0       0.037200
     42 H7         -39.2100    29.4290    -4.3720 h1         1 SJ0       0.037200
     43 H16        -43.4530    29.8320     2.6620 ha         1 SJ0       0.141000
     44 H17        -42.0290    31.9320     2.9760 ha         1 SJ0       0.135000
     45 H18        -42.5360    34.3640     3.0320 h4         1 SJ0       0.160000
     46 H2         -44.1210    34.5450    -2.0530 ha         1 SJ0       0.242000
     47 H1         -44.1340    37.8370     0.1260 hn         1 SJ0       0.334500
     48 H19        -44.8230    39.5950    -0.9910 hc         1 SJ0       0.087700
     49 H22        -46.6850    40.2880    -2.4660 hc         1 SJ0       0.083200
     50 H23        -46.6060    38.6990    -3.3560 hc         1 SJ0       0.083200
     51 H20        -44.2900    40.7540    -3.1150 hc         1 SJ0       0.083200
     52 H21        -44.2290    39.1610    -3.9980 hc         1 SJ0       0.083200
     53 O1         -41.0500    30.4400    -1.0640 os         1 SJ0      -0.332100
     54 C16        -43.0760    27.1910     2.8430 cg         1 SJ0       0.228000
     55 C11        -39.0590    30.7190    -6.6510 c3         1 SJ0       0.155100
@<TRIPOS>BOND
     1     1     3 1   
     2     1     7 2   
     3     1    29 1   
     4     2    15 1   
     5     2    16 1   
     6     2    55 1   
     7     3    20 1   
     8     3    21 2   
     9     4    20 1   
    10     4    22 2   
    11     5     6 ar  
    12     5    11 ar  
    13     5    53 1   
    14     6     7 1   
    15     6    17 ar  
    16     7    18 1   
    17     8    54 3   
    18     9    10 ar  
    19     9    17 ar  
    20     9    54 1   
    21    10    11 ar  
    22    11    30 1   
    23    12    13 1   
    24    12    31 1   
    25    12    32 1   
    26    12    53 1   
    27    13    14 1   
    28    13    16 1   
    29    13    33 1   
    30    14    15 1   
    31    14    34 1   
    32    14    35 1   
    33    15    36 1   
    34    15    37 1   
    35    16    41 1   
    36    16    42 1   
    37    17    43 1   
    38    18    19 2   
    39    18    44 1   
    40    19    20 1   
    41    19    45 1   
    42    21    22 1   
    43    21    46 1   
    44    22    23 1   
    45    23    24 1   
    46    23    47 1   
    47    24    25 2   
    48    24    26 1   
    49    26    27 1   
    50    26    28 1   
    51    26    48 1   
    52    27    28 1   
    53    27    49 1   
    54    27    50 1   
    55    28    51 1   
    56    28    52 1   
    57    38    55 1   
    58    39    55 1   
    59    40    55 1   
@<TRIPOS>SUBSTRUCTURE
     1 SJ0         1 TEMP              0 ****  ****    0 ROOT
