@<TRIPOS>MOLECULE
SJ0
   55    59     1     0     0
SMALL
No Charge or Current Charge


@<TRIPOS>ATOM
      1 C4         -42.9470    32.3490    -0.2130 cc         1 SJ0      -0.065000
      2 N3         -39.4070    31.4710    -5.2720 n3         1 SJ0      -0.711600
      3 C2         -43.2250    33.7320    -0.1270 cc         1 SJ0      -0.086000
      4 N1         -43.5960    35.7710     0.9180 nc         1 SJ0      -0.643100
      5 C7         -41.7010    29.5330    -0.0390 ca         1 SJ0       0.135100
      6 C6         -42.4120    30.2000     0.9980 ca         1 SJ0      -0.049000
      7 C5         -42.7680    31.6470     0.9660 cd         1 SJ0      -0.016000
      8 N5         -43.2500    26.6150     4.2190 n1         1 SJ0      -0.438000
      9 C15        -42.4970    28.0430     2.1610 ca         1 SJ0       0.382000
     10 N4         -41.8320    27.4070     1.1660 nb         1 SJ0      -0.598000
     11 C14        -41.4450    28.1430     0.0990 ca         1 SJ0       0.247900
     12 C8         -40.4960    29.6330    -2.2010 c3         1 SJ0       0.165600
     13 C9         -40.1050    30.7450    -3.1970 c5         1 SJ0      -0.074700
     14 C13        -41.3000    31.5420    -3.8180 c5         1 SJ0      -0.072400
     15 C12        -40.8380    31.8520    -5.2740 c5         1 SJ0       0.153800
     16 C10        -39.3720    30.2390    -4.4610 c5         1 SJ0       0.161800
     17 C17        -42.7960    29.4170     2.1130 ca         1 SJ0      -0.074000
     18 C18        -42.8450    32.4280     2.1990 cd         1 SJ0      -0.158000
     19 C19        -43.1220    33.8010     2.2660 cc         1 SJ0      -0.073000
     20 N2         -43.3170    34.4320     1.0400 na         1 SJ0       0.332400
     21 C3         -43.4640    34.6620    -1.0910 cd         1 SJ0      -0.387600
     22 C1         -43.6820    35.8860    -0.3970 cd         1 SJ0       0.458200
     23 N          -43.9580    37.0880    -0.9830 ns         1 SJ0      -0.398400
     24 C          -44.0850    37.4150    -2.3070 c          1 SJ0       0.646100
     25 O          -43.9530    36.6330    -3.2370 o          1 SJ0      -0.581100
     26 C20        -44.4010    38.8740    -2.5300 cx         1 SJ0      -0.248700
     27 C22        -45.7190    39.4260    -2.0180 cx         1 SJ0      -0.094900
     28 C21        -45.5040    39.2480    -3.5030 cx         1 SJ0      -0.094900
     29 H3         -42.9300    31.8840    -1.1900 ha         1 SJ0       0.140000
     30 H15        -40.8960    27.5900    -0.6610 h4         1 SJ0       0.031100
     31 H4         -39.5860    29.1360    -1.8400 h1         1 SJ0       0.042200
     32 H5         -41.1270    28.8920    -2.7080 h1         1 SJ0       0.042200
     33 H          -39.4460    31.4310    -2.6510 hc         1 SJ0       0.078700
     34 H13        -41.5020    32.4590    -3.2530 hc         1 SJ0       0.057200
     35 H14        -42.2280    30.9590    -3.8250 hc         1 SJ0       0.057200
     36 H11        -40.9830    32.9090    -5.5380 h1         1 SJ0       0.038200
     37 H12        -41.4070    31.2440    -5.9920 h1         1 SJ0       0.038200
     38 H8         -38.8380    32.3440    -7.1270 h1         1 SJ0       0.032700
     39 H10        -37.7140    31.1130    -6.5100 h1         1 SJ0       0.032700
     40 H9         -39.2690    30.6190    -7.2210 h1         1 SJ0       0.032700
     41 H6         -38.3470    29.9100    -4.2410 h1         1 SJ0       0.037200
     42 H7         -39.9100    29.4120    -4.9470 h1         1 SJ0       0.037200
     43 H16        -43.3600    29.8530     2.9320 ha         1 SJ0       0.141000
     44 H17        -42.6570    31.9320     3.1440 ha         1 SJ0       0.135000
     45 H18        -43.1840    34.4030     3.1610 h4         1 SJ0       0.160000
     46 H2         -43.4800    34.4930    -2.1610 ha         1 SJ0       0.242000
     47 H1         -44.0930    37.8690    -0.3600 hn         1 SJ0       0.334500
     48 H19        -43.5400    39.5370    -2.4920 hc         1 SJ0       0.087700
     49 H22        -45.7290    40.4410    -1.6270 hc         1 SJ0       0.083200
     50 H23        -46.4120    38.7450    -1.5270 hc         1 SJ0       0.083200
     51 H20        -45.3680    40.1430    -4.1060 hc         1 SJ0       0.083200
     52 H21        -46.0480    38.4470    -3.9990 hc         1 SJ0       0.083200
     53 O1         -41.2070    30.2510    -1.1150 os         1 SJ0      -0.332100
     54 C16        -42.9100    27.2480     3.2950 cg         1 SJ0       0.228000
     55 C11        -38.7750    31.3810    -6.6030 c3         1 SJ0       0.155100
@<TRIPOS>BOND
     1     1     3 1   
     2     1     7 2   
     3     1    29 1   
     4     2    15 1   
     5     2    16 1   
     6     2    55 1   
     7     3    20 1   
     8     3    21 2   
     9     4    20 1   
    10     4    22 2   
    11     5     6 ar  
    12     5    11 ar  
    13     5    53 1   
    14     6     7 1   
    15     6    17 ar  
    16     7    18 1   
    17     8    54 3   
    18     9    10 ar  
    19     9    17 ar  
    20     9    54 1   
    21    10    11 ar  
    22    11    30 1   
    23    12    13 1   
    24    12    31 1   
    25    12    32 1   
    26    12    53 1   
    27    13    14 1   
    28    13    16 1   
    29    13    33 1   
    30    14    15 1   
    31    14    34 1   
    32    14    35 1   
    33    15    36 1   
    34    15    37 1   
    35    16    41 1   
    36    16    42 1   
    37    17    43 1   
    38    18    19 2   
    39    18    44 1   
    40    19    20 1   
    41    19    45 1   
    42    21    22 1   
    43    21    46 1   
    44    22    23 1   
    45    23    24 1   
    46    23    47 1   
    47    24    25 2   
    48    24    26 1   
    49    26    27 1   
    50    26    28 1   
    51    26    48 1   
    52    27    28 1   
    53    27    49 1   
    54    27    50 1   
    55    28    51 1   
    56    28    52 1   
    57    38    55 1   
    58    39    55 1   
    59    40    55 1   
@<TRIPOS>SUBSTRUCTURE
     1 SJ0         1 TEMP              0 ****  ****    0 ROOT
