@<TRIPOS>MOLECULE
SJ3
   17    16     1     0     0
SMALL
No Charge or Current Charge


@<TRIPOS>ATOM
      1 C05         16.7370     7.2700    -7.4090 c3         1 SJ3       0.166300
      2 C06         18.6510     7.8900    -9.1160 c3         1 SJ3      -0.203400
      3 C08         17.8140     7.5070   -10.3510 c          1 SJ3       0.702000
      4 C04         17.7430     8.3330    -7.9340 c3         1 SJ3      -0.043400
      5 C07         17.4110     6.0260    -6.7900 c3         1 SJ3      -0.118100
      6 O01         15.9100     7.8740    -6.4070 oh         1 SJ3      -0.690000
      7 O02         17.4760     8.3980   -11.1150 o          1 SJ3      -0.744000
      8 O03         17.4960     6.3370   -10.4950 o          1 SJ3      -0.744000
      9 H051        16.1090     6.9380    -8.2470 h1         1 SJ3       0.062700
     10 H061        19.2400     7.0360    -8.7620 hc         1 SJ3       0.020200
     11 H062        19.2640     8.7720    -9.3400 hc         1 SJ3       0.020200
     12 H042        18.3840     8.6560    -7.1040 hc         1 SJ3       0.030700
     13 H041        17.1800     9.2200    -8.2490 hc         1 SJ3       0.030700
     14 H073        16.6590     5.3390    -6.3840 hc         1 SJ3       0.031033
     15 H072        17.9870     5.4770    -7.5440 hc         1 SJ3       0.031033
     16 H071        18.0920     6.3110    -5.9780 hc         1 SJ3       0.031033
     17 H011        15.2970     7.1780    -6.0860 ho         1 SJ3       0.417000
@<TRIPOS>BOND
     1     1     4 1   
     2     1     5 1   
     3     1     6 1   
     4     1     9 1   
     5     2     3 1   
     6     2     4 1   
     7     2    10 1   
     8     2    11 1   
     9     3     7 1   
    10     3     8 1   
    11     4    12 1   
    12     4    13 1   
    13     5    14 1   
    14     5    15 1   
    15     5    16 1   
    16     6    17 1   
@<TRIPOS>SUBSTRUCTURE
     1 SJ3         1 TEMP              0 ****  ****    0 ROOT
