@<TRIPOS>MOLECULE
SJ3
   17    16     1     0     0
SMALL
abcg2


@<TRIPOS>ATOM
      1 C05         16.7400     7.3060    -7.4070 c3         1 SJ3       0.166300
      2 C06         18.6200     7.8440    -9.0620 c3         1 SJ3      -0.203400
      3 C08         17.8280     7.4280   -10.3190 c          1 SJ3       0.702000
      4 C04         17.7470     8.3340    -7.9050 c3         1 SJ3      -0.043400
      5 C07         17.3800     6.0470    -6.8420 c3         1 SJ3      -0.118100
      6 O01         15.9530     7.9710    -6.3980 oh         1 SJ3      -0.690000
      7 O02         16.9860     8.2520   -10.7650 o          1 SJ3      -0.744000
      8 O03         18.0910     6.3040   -10.8210 o          1 SJ3      -0.744000
      9 H051        16.0800     7.0280    -8.2380 h1         1 SJ3       0.062700
     10 H061        19.2490     7.0120    -8.7440 hc         1 SJ3       0.020200
     11 H062        19.2900     8.6580    -9.3550 hc         1 SJ3       0.020200
     12 H042        18.3840     8.6270    -7.0640 hc         1 SJ3       0.030700
     13 H041        17.1970     9.2230    -8.2200 hc         1 SJ3       0.030700
     14 H073        16.6150     5.3830    -6.4320 hc         1 SJ3       0.031033
     15 H072        17.9150     5.4990    -7.6190 hc         1 SJ3       0.031033
     16 H071        18.0830     6.2990    -6.0450 hc         1 SJ3       0.031033
     17 H011        15.2920     7.3460    -6.0760 ho         1 SJ3       0.417000
@<TRIPOS>BOND
     1     1     4 1   
     2     1     5 1   
     3     1     6 1   
     4     1     9 1   
     5     2     3 1   
     6     2     4 1   
     7     2    10 1   
     8     2    11 1   
     9     3     7 1   
    10     3     8 1   
    11     4    12 1   
    12     4    13 1   
    13     5    14 1   
    14     5    15 1   
    15     5    16 1   
    16     6    17 1   
@<TRIPOS>SUBSTRUCTURE
     1 SJ3         1 TEMP              0 ****  ****    0 ROOT
