@<TRIPOS>MOLECULE
SJ4
   89    93     1     0     0
SMALL
abcg2


@<TRIPOS>ATOM
      1 C01         13.9090    17.5100    -0.8300 c3         1 SJ4      -0.086100
      2 C02         14.5880    18.6780    -0.1110 c3         1 SJ4      -0.018500
      3 C03         13.8060    19.0430     1.1540 c3         1 SJ4      -0.086100
      4 C04         16.0180    18.3720     0.2400 c2         1 SJ4      -0.076400
      5 C05         17.1420    19.0100    -0.1220 c2         1 SJ4      -0.149400
      6 C06         18.3680    18.3840     0.5280 c5         1 SJ4       0.006200
      7 C07         17.8150    16.9770     0.8370 c5         1 SJ4       0.166300
      8 C09         16.3400    17.2150     1.1510 c5         1 SJ4      -0.090200
      9 C10         19.5930    18.2820    -0.3770 c3         1 SJ4      -0.085100
     10 C11         18.7380    19.1190     1.8290 c3         1 SJ4      -0.057400
     11 C12         19.0290    20.6140     1.7010 c5         1 SJ4      -0.057700
     12 C13         17.7800    21.5430     1.7190 c5         1 SJ4      -0.049700
     13 C14         18.0460    22.5440     2.8700 c5         1 SJ4      -0.081400
     14 C15         19.5520    22.5420     3.0950 c5         1 SJ4      -0.069400
     15 C16         19.9280    21.0850     2.8660 c5         1 SJ4      -0.069700
     16 C17         21.3940    20.8550     2.5670 c3         1 SJ4       0.164600
     17 C19         23.5450    21.0490     3.4630 c3         1 SJ4       0.147900
     18 C20         17.4450    22.2770     0.4050 c3         1 SJ4      -0.086700
     19 C21         18.6460    22.9290    -0.2770 c3         1 SJ4      -0.086100
     20 C22         16.5730    21.4580    -0.5620 c3         1 SJ4       0.167300
     21 C24         17.2300    20.1650    -1.0880 c3         1 SJ4       0.246500
     22 C26         17.3320    19.6370    -3.4460 c6         1 SJ4       0.354300
     23 C27         16.3590    19.8510    -4.6150 c6         1 SJ4       0.168300
     24 C29         15.3240    18.7200    -4.6600 c6         1 SJ4       0.153300
     25 C31         16.0840    17.4020    -4.6610 c6         1 SJ4       0.098300
     26 C32         17.0330    17.3180    -3.4770 c6         1 SJ4       0.095300
     27 C33         17.7450    15.9820    -3.5520 c6         1 SJ4       0.164600
     28 C35         15.7900    15.0430    -4.5760 c6         1 SJ4       0.401000
     29 C36         14.6980    14.0610    -4.1920 c3         1 SJ4      -0.109100
     30 C37         16.3840    14.6860    -5.9380 c3         1 SJ4      -0.109100
     31 O08         18.5580    16.3260     1.8350 oh         1 SJ4      -0.652000
     32 O18         22.1700    21.2190     3.6810 os         1 SJ4      -0.454000
     33 O23         16.2290    22.2400    -1.6900 oh         1 SJ4      -0.725000
     34 O25         16.5760    19.8000    -2.2960 os         1 SJ4      -0.486000
     35 O28         15.7790    21.1240    -4.5530 oh         1 SJ4      -0.700000
     36 O30         14.5500    18.8870    -5.8220 oh         1 SJ4      -0.702000
     37 O34         16.7610    14.9670    -3.5530 os         1 SJ4      -0.474000
     38 O38         15.1800    16.3210    -4.5940 os         1 SJ4      -0.476000
     39 O39         17.9550    18.3810    -3.5120 os         1 SJ4      -0.463000
     40 H013        12.8890    17.7810    -1.1060 hc         1 SJ4       0.035200
     41 H012        14.4350    17.2320    -1.7440 hc         1 SJ4       0.035200
     42 H011        13.8520    16.6230    -0.1970 hc         1 SJ4       0.035200
     43 H021        14.5500    19.5350    -0.7840 hc         1 SJ4       0.066700
     44 H031        14.2570    19.8910     1.6720 hc         1 SJ4       0.035200
     45 H032        12.7780    19.3100     0.9060 hc         1 SJ4       0.035200
     46 H033        13.7680    18.2060     1.8550 hc         1 SJ4       0.035200
     47 H071        17.8560    16.4090    -0.1060 h1         1 SJ4       0.036700
     48 H091        16.1980    17.4860     2.2030 hc         1 SJ4       0.059700
     49 H092        15.7240    16.3310     0.9680 hc         1 SJ4       0.059700
     50 H103        20.3630    17.6770     0.1060 hc         1 SJ4       0.040700
     51 H102        19.3440    17.8120    -1.3280 hc         1 SJ4       0.040700
     52 H101        20.0400    19.2530    -0.5990 hc         1 SJ4       0.040700
     53 H111        17.9460    18.9860     2.5750 hc         1 SJ4       0.053200
     54 H1          19.6240    18.6290     2.2450 hc         1 SJ4       0.053200
     55 H2          19.5940    20.7830     0.7780 hc         1 SJ4       0.049700
     56 H131        16.8960    20.9500     1.9800 hc         1 SJ4       0.053700
     57 H141        17.6460    23.5390     2.6610 hc         1 SJ4       0.041700
     58 H142        17.5470    22.1960     3.7780 hc         1 SJ4       0.041700
     59 H152        20.0590    23.1810     2.3650 hc         1 SJ4       0.049200
     60 H151        19.8300    22.9060     4.0850 hc         1 SJ4       0.049200
     61 H161        19.6550    20.5120     3.7620 hc         1 SJ4       0.063700
     62 H172        21.5710    19.8010     2.3030 h1         1 SJ4       0.021200
     63 H171        21.6790    21.4510     1.6840 h1         1 SJ4       0.021200
     64 H193        24.0720    21.3510     4.3680 h1         1 SJ4       0.027033
     65 H191        23.8030    20.0050     3.2460 h1         1 SJ4       0.027033
     66 H192        23.9100    21.6620     2.6300 h1         1 SJ4       0.027033
     67 H201        16.7850    23.1010     0.7100 hc         1 SJ4       0.038700
     68 H213        19.1990    23.5500     0.4270 hc         1 SJ4       0.038033
     69 H212        19.3480    22.2060    -0.6940 hc         1 SJ4       0.038033
     70 H211        18.3300    23.5780    -1.0930 hc         1 SJ4       0.038033
     71 H221        15.6640    21.1840    -0.0100 h1         1 SJ4       0.042700
     72 H241        18.2840    20.3750    -1.3080 h1         1 SJ4       0.057700
     73 H261        18.1500    20.3680    -3.4940 h2         1 SJ4       0.083700
     74 H271        16.9410    19.8090    -5.5430 h1         1 SJ4       0.086700
     75 H291        14.6960    18.7680    -3.7580 h1         1 SJ4       0.056700
     76 H311        16.6780    17.3640    -5.5890 h1         1 SJ4       0.055700
     77 H321        16.4550    17.3400    -2.5440 h1         1 SJ4       0.077700
     78 H332        18.3870    15.9390    -4.4410 h1         1 SJ4       0.058200
     79 H331        18.3730    15.8120    -2.6760 h1         1 SJ4       0.058200
     80 H362        14.2700    14.3160    -3.2230 hc         1 SJ4       0.051700
     81 H363        13.9010    14.0660    -4.9350 hc         1 SJ4       0.051700
     82 H361        15.0990    13.0490    -4.1390 hc         1 SJ4       0.051700
     83 H371        16.7720    13.6680    -5.9140 hc         1 SJ4       0.051700
     84 H373        15.6120    14.7340    -6.7050 hc         1 SJ4       0.051700
     85 H372        17.1990    15.3390    -6.2490 hc         1 SJ4       0.051700
     86 H081        18.2320    15.4250     1.9120 ho         1 SJ4       0.445000
     87 H231        15.8780    23.0800    -1.3770 ho         1 SJ4       0.508000
     88 H281        15.6020    21.3340    -3.6250 ho         1 SJ4       0.531000
     89 H301        13.8390    18.2400    -5.8080 ho         1 SJ4       0.511000
@<TRIPOS>BOND
     1     1     2 1   
     2     1    40 1   
     3     1    41 1   
     4     1    42 1   
     5     2     3 1   
     6     2     4 1   
     7     2    43 1   
     8     3    44 1   
     9     3    45 1   
    10     3    46 1   
    11     4     5 2   
    12     4     8 1   
    13     5     6 1   
    14     5    21 1   
    15     6     7 1   
    16     6     9 1   
    17     6    10 1   
    18     7     8 1   
    19     7    31 1   
    20     7    47 1   
    21     8    48 1   
    22     8    49 1   
    23     9    50 1   
    24     9    51 1   
    25     9    52 1   
    26    10    11 1   
    27    10    53 1   
    28    10    54 1   
    29    11    12 1   
    30    11    15 1   
    31    11    55 1   
    32    12    13 1   
    33    12    18 1   
    34    12    56 1   
    35    13    14 1   
    36    13    57 1   
    37    13    58 1   
    38    14    15 1   
    39    14    59 1   
    40    14    60 1   
    41    15    16 1   
    42    15    61 1   
    43    16    32 1   
    44    16    62 1   
    45    16    63 1   
    46    17    32 1   
    47    17    64 1   
    48    17    65 1   
    49    17    66 1   
    50    18    19 1   
    51    18    20 1   
    52    18    67 1   
    53    19    68 1   
    54    19    69 1   
    55    19    70 1   
    56    20    21 1   
    57    20    33 1   
    58    20    71 1   
    59    21    34 1   
    60    21    72 1   
    61    22    23 1   
    62    22    34 1   
    63    22    39 1   
    64    22    73 1   
    65    23    24 1   
    66    23    35 1   
    67    23    74 1   
    68    24    25 1   
    69    24    36 1   
    70    24    75 1   
    71    25    26 1   
    72    25    38 1   
    73    25    76 1   
    74    26    27 1   
    75    26    39 1   
    76    26    77 1   
    77    27    37 1   
    78    27    78 1   
    79    27    79 1   
    80    28    29 1   
    81    28    30 1   
    82    28    37 1   
    83    28    38 1   
    84    29    80 1   
    85    29    81 1   
    86    29    82 1   
    87    30    83 1   
    88    30    84 1   
    89    30    85 1   
    90    31    86 1   
    91    33    87 1   
    92    35    88 1   
    93    36    89 1   
@<TRIPOS>SUBSTRUCTURE
     1 SJ4         1 TEMP              0 ****  ****    0 ROOT
