@<TRIPOS>MOLECULE
SJ4
   89    93     1     0     0
SMALL
No Charge or Current Charge


@<TRIPOS>ATOM
      1 C01         13.5190    17.5810    -0.1570 c3         1 SJ4      -0.086100
      2 C02         14.2270    18.7900     0.4910 c3         1 SJ4      -0.018500
      3 C03         13.4180    19.3700     1.6710 c3         1 SJ4      -0.086100
      4 C04         15.6540    18.4400     0.9060 c2         1 SJ4      -0.076400
      5 C05         16.8040    18.8810     0.3630 c2         1 SJ4      -0.149400
      6 C06         18.0180    18.2820     1.0700 c5         1 SJ4       0.006200
      7 C07         17.3710    17.0030     1.7430 c5         1 SJ4       0.166300
      8 C09         15.9350    17.4920     2.0550 c5         1 SJ4      -0.090200
      9 C10         19.1440    17.8180     0.0970 c3         1 SJ4      -0.085100
     10 C11         18.6060    19.2910     2.1130 c3         1 SJ4      -0.057400
     11 C12         19.1460    20.6900     1.6560 c5         1 SJ4      -0.057700
     12 C13         18.0740    21.8660     1.5650 c5         1 SJ4      -0.049700
     13 C14         18.7630    23.0690     2.2990 c5         1 SJ4      -0.081400
     14 C15         20.2660    22.7350     2.2310 c5         1 SJ4      -0.069400
     15 C16         20.2190    21.2500     2.6530 c5         1 SJ4      -0.069700
     16 C17         21.5960    20.5390     2.5940 c3         1 SJ4       0.164600
     17 C19         23.8030    20.6340     3.5730 c3         1 SJ4       0.147900
     18 C20         17.5150    22.2660     0.1480 c3         1 SJ4      -0.086700
     19 C21         18.6060    22.6480    -0.8960 c3         1 SJ4      -0.086100
     20 C22         16.4340    21.3000    -0.4220 c3         1 SJ4       0.167300
     21 C24         16.9650    19.8650    -0.7830 c3         1 SJ4       0.246500
     22 C26         16.7680    19.6640    -3.2090 c6         1 SJ4       0.354300
     23 C27         15.5880    19.8170    -4.2290 c6         1 SJ4       0.168300
     24 C29         14.9480    18.4120    -4.5050 c6         1 SJ4       0.153300
     25 C31         16.0600    17.4070    -4.9100 c6         1 SJ4       0.098300
     26 C32         17.1260    17.3380    -3.7910 c6         1 SJ4       0.095300
     27 C33         18.1770    16.2720    -4.1770 c6         1 SJ4       0.164600
     28 C35         16.5040    15.0840    -5.5170 c6         1 SJ4       0.401000
     29 C36         15.7760    13.7220    -5.5310 c3         1 SJ4      -0.109100
     30 C37         17.1400    15.3640    -6.9130 c3         1 SJ4      -0.109100
     31 O08         18.0550    16.5190     2.9050 oh         1 SJ4      -0.652000
     32 O18         22.4770    21.1850     3.5280 os         1 SJ4      -0.454000
     33 O23         15.7520    21.9410    -1.5300 oh         1 SJ4      -0.725000
     34 O25         16.2540    19.3290    -1.9100 os         1 SJ4      -0.486000
     35 O28         14.6140    20.7670    -3.7220 oh         1 SJ4      -0.700000
     36 O30         13.9350    18.4460    -5.5320 oh         1 SJ4      -0.702000
     37 O34         17.5120    15.0190    -4.4830 os         1 SJ4      -0.474000
     38 O38         15.5210    16.0870    -5.1740 os         1 SJ4      -0.476000
     39 O39         17.7150    18.6490    -3.6140 os         1 SJ4      -0.463000
     40 H013        12.5310    17.8690    -0.5350 hc         1 SJ4       0.035200
     41 H012        14.1070    17.2000    -1.0000 hc         1 SJ4       0.035200
     42 H011        13.3830    16.7660     0.5640 hc         1 SJ4       0.035200
     43 H021        14.2490    19.5670    -0.2790 hc         1 SJ4       0.066700
     44 H031        13.9320    20.2390     2.0970 hc         1 SJ4       0.035200
     45 H032        12.4240    19.6920     1.3360 hc         1 SJ4       0.035200
     46 H033        13.2860    18.6240     2.4640 hc         1 SJ4       0.035200
     47 H071        17.3060    16.1980     0.9960 h1         1 SJ4       0.036700
     48 H091        15.8650    18.0150     3.0150 hc         1 SJ4       0.059700
     49 H092        15.2330    16.6520     2.0840 hc         1 SJ4       0.059700
     50 H103        19.9220    17.2640     0.6350 hc         1 SJ4       0.040700
     51 H102        18.7430    17.1500    -0.6750 hc         1 SJ4       0.040700
     52 H101        19.6410    18.6440    -0.4220 hc         1 SJ4       0.040700
     53 H111        17.8620    19.4620     2.9010 hc         1 SJ4       0.053200
     54 H1          19.4160    18.7660     2.6300 hc         1 SJ4       0.053200
     55 H2          19.6350    20.5480     0.6890 hc         1 SJ4       0.049700
     56 H131        17.1880    21.5950     2.1510 hc         1 SJ4       0.053700
     57 H141        18.5390    24.0410     1.8450 hc         1 SJ4       0.041700
     58 H142        18.4260    23.1330     3.3410 hc         1 SJ4       0.041700
     59 H152        20.6870    22.8690     1.2280 hc         1 SJ4       0.049200
     60 H151        20.8550    23.3510     2.9210 hc         1 SJ4       0.049200
     61 H161        19.8670    21.1550     3.6880 hc         1 SJ4       0.063700
     62 H172        21.4820    19.4780     2.8510 h1         1 SJ4       0.021200
     63 H171        21.9960    20.6050     1.5740 h1         1 SJ4       0.021200
     64 H193        24.4160    21.1750     4.3050 h1         1 SJ4       0.027033
     65 H191        23.7760    19.5760     3.8640 h1         1 SJ4       0.027033
     66 H192        24.2910    20.7130     2.5920 h1         1 SJ4       0.027033
     67 H201        16.9650    23.1990     0.3220 hc         1 SJ4       0.038700
     68 H213        19.2360    23.4630    -0.5220 hc         1 SJ4       0.038033
     69 H212        19.2580    21.8030    -1.1430 hc         1 SJ4       0.038033
     70 H211        18.1530    23.0010    -1.8290 hc         1 SJ4       0.038033
     71 H221        15.6990    21.1720     0.3830 h1         1 SJ4       0.042700
     72 H241        18.0280    19.9440    -1.0310 h1         1 SJ4       0.057700
     73 H261        17.2910    20.6330    -3.1580 h2         1 SJ4       0.083700
     74 H271        16.0170    20.1880    -5.1720 h1         1 SJ4       0.086700
     75 H291        14.5030    18.0530    -3.5640 h1         1 SJ4       0.056700
     76 H311        16.5350    17.7850    -5.8270 h1         1 SJ4       0.055700
     77 H321        16.6510    17.0240    -2.8500 h1         1 SJ4       0.077700
     78 H332        18.7690    16.6060    -5.0400 h1         1 SJ4       0.058200
     79 H331        18.8670    16.1120    -3.3370 h1         1 SJ4       0.058200
     80 H362        15.3190    13.5120    -4.5560 hc         1 SJ4       0.051700
     81 H363        14.9800    13.7070    -6.2840 hc         1 SJ4       0.051700
     82 H361        16.4690    12.9040    -5.7590 hc         1 SJ4       0.051700
     83 H371        17.8360    14.5640    -7.1880 hc         1 SJ4       0.051700
     84 H373        16.3660    15.4050    -7.6890 hc         1 SJ4       0.051700
     85 H372        17.6960    16.3060    -6.9580 hc         1 SJ4       0.051700
     86 H081        17.5440    15.7460     3.2310 ho         1 SJ4       0.445000
     87 H231        15.5240    22.8520    -1.2290 ho         1 SJ4       0.508000
     88 H281        14.9890    21.0930    -2.8510 ho         1 SJ4       0.531000
     89 H301        13.8160    17.5050    -5.8010 ho         1 SJ4       0.511000
@<TRIPOS>BOND
     1     1     2 1   
     2     1    40 1   
     3     1    41 1   
     4     1    42 1   
     5     2     3 1   
     6     2     4 1   
     7     2    43 1   
     8     3    44 1   
     9     3    45 1   
    10     3    46 1   
    11     4     5 2   
    12     4     8 1   
    13     5     6 1   
    14     5    21 1   
    15     6     7 1   
    16     6     9 1   
    17     6    10 1   
    18     7     8 1   
    19     7    31 1   
    20     7    47 1   
    21     8    48 1   
    22     8    49 1   
    23     9    50 1   
    24     9    51 1   
    25     9    52 1   
    26    10    11 1   
    27    10    53 1   
    28    10    54 1   
    29    11    12 1   
    30    11    15 1   
    31    11    55 1   
    32    12    13 1   
    33    12    18 1   
    34    12    56 1   
    35    13    14 1   
    36    13    57 1   
    37    13    58 1   
    38    14    15 1   
    39    14    59 1   
    40    14    60 1   
    41    15    16 1   
    42    15    61 1   
    43    16    32 1   
    44    16    62 1   
    45    16    63 1   
    46    17    32 1   
    47    17    64 1   
    48    17    65 1   
    49    17    66 1   
    50    18    19 1   
    51    18    20 1   
    52    18    67 1   
    53    19    68 1   
    54    19    69 1   
    55    19    70 1   
    56    20    21 1   
    57    20    33 1   
    58    20    71 1   
    59    21    34 1   
    60    21    72 1   
    61    22    23 1   
    62    22    34 1   
    63    22    39 1   
    64    22    73 1   
    65    23    24 1   
    66    23    35 1   
    67    23    74 1   
    68    24    25 1   
    69    24    36 1   
    70    24    75 1   
    71    25    26 1   
    72    25    38 1   
    73    25    76 1   
    74    26    27 1   
    75    26    39 1   
    76    26    77 1   
    77    27    37 1   
    78    27    78 1   
    79    27    79 1   
    80    28    29 1   
    81    28    30 1   
    82    28    37 1   
    83    28    38 1   
    84    29    80 1   
    85    29    81 1   
    86    29    82 1   
    87    30    83 1   
    88    30    84 1   
    89    30    85 1   
    90    31    86 1   
    91    33    87 1   
    92    35    88 1   
    93    36    89 1   
@<TRIPOS>SUBSTRUCTURE
     1 SJ4         1 TEMP              0 ****  ****    0 ROOT
