@<TRIPOS>MOLECULE
SJ5
   21    21     1     0     0
SMALL
bcc


@<TRIPOS>ATOM
      1 C2           2.0470     1.1510     0.3820 c6         1 SJ5       0.130800
      2 C3           1.8140    -0.2130    -0.2700 c6         1 SJ5       0.057100
      3 O3           2.7340    -1.1800     0.2000 oh         1 SJ5      -0.607800
      4 N            1.0530     2.1420     0.0190 n7         1 SJ5      -0.807200
      5 C7          -0.2940     1.6630     0.2820 c6         1 SJ5       0.153800
      6 C5          -0.6260     0.3150    -0.3710 c6         1 SJ5      -0.223700
      7 C6          -2.0530    -0.1270     0.0110 c          1 SJ5       0.945600
      8 O62         -2.9180    -0.1110    -0.8870 o          1 SJ5      -0.834300
      9 C4           0.4130    -0.7120     0.0520 c6         1 SJ5       0.172100
     10 O4           0.1280    -1.9270    -0.6090 oh         1 SJ5      -0.577800
     11 O61         -2.2340    -0.4320     1.2080 o          1 SJ5      -0.834300
     12 H1           2.0370     1.0280     1.4710 h1         1 SJ5       0.038700
     13 H2           3.0390     1.5260     0.1160 h1         1 SJ5       0.038700
     14 H3           1.8970    -0.0980    -1.3630 h1         1 SJ5       0.026700
     15 H4           3.6100    -0.9490    -0.1230 ho         1 SJ5       0.385000
     16 H5           1.1440     2.3620    -0.9660 hn         1 SJ5       0.333800
     17 H7          -0.4160     1.5710     1.3660 h1         1 SJ5       0.058700
     18 H8          -1.0040     2.4230    -0.0530 h1         1 SJ5       0.058700
     19 H9          -0.5650     0.4430    -1.4590 hc         1 SJ5       0.039700
     20 H11          0.3400    -0.8390     1.1440 h1         1 SJ5       0.058700
     21 H12          0.7880    -2.5730    -0.3390 ho         1 SJ5       0.386000
@<TRIPOS>BOND
     1     1     2 1   
     2     1     4 1   
     3     1    12 1   
     4     1    13 1   
     5     2     3 1   
     6     2     9 1   
     7     2    14 1   
     8     3    15 1   
     9     4     5 1   
    10     4    16 1   
    11     5     6 1   
    12     5    17 1   
    13     5    18 1   
    14     6     7 1   
    15     6     9 1   
    16     6    19 1   
    17     7     8 1   
    18     7    11 1   
    19     9    10 1   
    20     9    20 1   
    21    10    21 1   
@<TRIPOS>SUBSTRUCTURE
     1 SJ5         1 TEMP              0 ****  ****    0 ROOT
