@<TRIPOS>MOLECULE
SJ5
   21    21     1     0     0
SMALL
No Charge or Current Charge


@<TRIPOS>ATOM
      1 C2           2.0780     1.1300     0.4000 c6         1 SJ5       0.130800
      2 C3           1.8230    -0.2600    -0.2540 c6         1 SJ5       0.080300
      3 O3           2.7920    -1.2320     0.1860 oh         1 SJ5      -0.670000
      4 N            1.0550     2.1240    -0.0180 n7         1 SJ5      -0.862400
      5 C7          -0.3260     1.6950     0.3130 c6         1 SJ5       0.153800
      6 C5          -0.6620     0.3330    -0.3400 c6         1 SJ5      -0.223700
      7 C6          -2.0930    -0.0900     0.0210 c          1 SJ5       0.735000
      8 O62         -2.9090    -0.1870    -0.8850 o          1 SJ5      -0.729000
      9 C4           0.3770    -0.7370     0.0760 c6         1 SJ5       0.195300
     10 O4           0.1300    -1.9780    -0.5940 oh         1 SJ5      -0.640000
     11 O61         -2.3690    -0.2580     1.2000 o          1 SJ5      -0.729000
     12 H1           2.0620     1.0300     1.4960 h1         1 SJ5       0.038700
     13 H2           3.0750     1.4960     0.1130 h1         1 SJ5       0.038700
     14 H3           1.9040    -0.1370    -1.3450 h1         1 SJ5       0.026700
     15 H4           3.6760    -0.9030    -0.0890 ho         1 SJ5       0.424000
     16 H5           1.1180     2.2460    -1.0360 hn         1 SJ5       0.389000
     17 H7          -0.4320     1.6190     1.4070 h1         1 SJ5       0.058700
     18 H8          -1.0420     2.4560    -0.0320 h1         1 SJ5       0.058700
     19 H9          -0.6180     0.4550    -1.4320 hc         1 SJ5       0.039700
     20 H11          0.3080    -0.8830     1.1660 h1         1 SJ5       0.058700
     21 H12          0.9870    -2.4550    -0.5410 ho         1 SJ5       0.425000
@<TRIPOS>BOND
     1     1     2 1   
     2     1     4 1   
     3     1    12 1   
     4     1    13 1   
     5     2     3 1   
     6     2     9 1   
     7     2    14 1   
     8     3    15 1   
     9     4     5 1   
    10     4    16 1   
    11     5     6 1   
    12     5    17 1   
    13     5    18 1   
    14     6     7 1   
    15     6     9 1   
    16     6    19 1   
    17     7     8 1   
    18     7    11 1   
    19     9    10 1   
    20     9    20 1   
    21    10    21 1   
@<TRIPOS>SUBSTRUCTURE
     1 SJ5         1 TEMP              0 ****  ****    0 ROOT
