@<TRIPOS>MOLECULE
SJ6
   43    46     1     0     0
SMALL
abcg2


@<TRIPOS>ATOM
      1 C10        -40.5240    96.5780   -30.7940 ca         1 SJ6      -0.092300
      2 C13        -42.7990    97.2620   -31.2910 ca         1 SJ6      -0.070000
      3 C15        -41.2560    98.8310   -30.2810 ca         1 SJ6      -0.070000
      4 C17        -43.5640    99.5600   -30.8370 cc         1 SJ6       0.592200
      5 C20        -45.3280   100.7310   -31.1430 ca         1 SJ6       0.054400
      6 C22        -44.6450   102.8500   -30.1170 ca         1 SJ6      -0.097000
      7 C24        -46.8840   102.5160   -31.0050 ca         1 SJ6      -0.128000
      8 C1         -38.6940    93.3790   -25.0540 ca         1 SJ6      -0.173000
      9 C2         -39.1570    92.0970   -25.3430 ca         1 SJ6       0.349900
     10 C4         -39.3370    92.5750   -27.5740 ca         1 SJ6       0.355900
     11 C5         -38.9350    93.8970   -27.3790 ca         1 SJ6      -0.195600
     12 C6         -38.6620    94.3160   -26.0740 ca         1 SJ6      -0.020000
     13 C7         -38.8540    94.9220   -28.4760 c          1 SJ6       0.615700
     14 C11        -39.4420    95.5310   -30.7920 c3         1 SJ6       0.151300
     15 C12        -41.8080    96.2900   -31.2630 ca         1 SJ6      -0.103000
     16 C14        -42.5170    98.5500   -30.8180 ca         1 SJ6      -0.115900
     17 C16        -40.2620    97.8630   -30.3160 ca         1 SJ6      -0.103000
     18 C19        -44.4070   101.5340   -30.4700 ca         1 SJ6       0.039100
     19 C23        -45.9050   103.3620   -30.4420 ca         1 SJ6      -0.055300
     20 C25        -46.6200   101.2010   -31.3610 ca         1 SJ6      -0.043000
     21 N3         -39.4530    91.6870   -26.5800 nb         1 SJ6      -0.668000
     22 N9         -39.5230    94.6590   -29.6100 ns         1 SJ6      -0.503900
     23 N21        -44.7620    99.4700   -31.3260 nd         1 SJ6      -0.569100
     24 O8         -38.1810    95.9500   -28.3220 o          1 SJ6      -0.613100
     25 O18        -43.2710   100.7870   -30.2850 os         1 SJ6      -0.292700
     26 H1         -43.7940    97.0310   -31.6410 ha         1 SJ6       0.135500
     27 H2         -40.9960    99.8410   -29.9940 ha         1 SJ6       0.135500
     28 H3         -43.8740   103.4930   -29.7090 ha         1 SJ6       0.133000
     29 H4         -47.8620   102.9410   -31.1910 ha         1 SJ6       0.117000
     30 H5         -46.6320   104.8460   -29.0680 hc         1 SJ6       0.045700
     31 H6         -45.3820   105.4340   -30.1100 hc         1 SJ6       0.045700
     32 H7         -47.0400   105.1780   -30.7420 hc         1 SJ6       0.045700
     33 H9         -39.1560    91.3480   -24.5560 h4         1 SJ6       0.023100
     34 H10        -39.5910    92.1980   -28.5580 h4         1 SJ6       0.014100
     35 H11        -38.3180    95.3200   -25.8640 ha         1 SJ6       0.145000
     36 H12        -39.5350    94.8740   -31.6550 h1         1 SJ6       0.067200
     37 H13        -38.4620    96.0030   -30.7560 h1         1 SJ6       0.067200
     38 H14        -42.0310    95.3050   -31.6550 ha         1 SJ6       0.124000
     39 H15        -39.3030    98.0510   -29.8510 ha         1 SJ6       0.124000
     40 H16        -47.3850   100.5640   -31.7880 ha         1 SJ6       0.134000
     41 H17        -40.0290    93.7980   -29.7180 hn         1 SJ6       0.316500
     42 C26        -46.2580   104.7810   -30.0980 c3         1 SJ6      -0.049800
     43 H8         -38.4850    93.6440   -24.0260 ha         1 SJ6       0.129000
@<TRIPOS>BOND
     1     1    14 1   
     2     1    15 ar  
     3     1    17 ar  
     4     2    15 ar  
     5     2    16 ar  
     6     2    26 1   
     7     3    16 ar  
     8     3    17 ar  
     9     3    27 1   
    10     4    16 1   
    11     4    23 2   
    12     4    25 1   
    13     5    18 ar  
    14     5    20 ar  
    15     5    23 1   
    16     6    18 ar  
    17     6    19 ar  
    18     6    28 1   
    19     7    19 ar  
    20     7    20 ar  
    21     7    29 1   
    22     8     9 ar  
    23     8    12 ar  
    24     8    43 1   
    25     9    21 ar  
    26     9    33 1   
    27    10    11 ar  
    28    10    21 ar  
    29    10    34 1   
    30    11    12 ar  
    31    11    13 1   
    32    12    35 1   
    33    13    22 1   
    34    13    24 2   
    35    14    22 1   
    36    14    36 1   
    37    14    37 1   
    38    15    38 1   
    39    17    39 1   
    40    18    25 1   
    41    19    42 1   
    42    20    40 1   
    43    22    41 1   
    44    30    42 1   
    45    31    42 1   
    46    32    42 1   
@<TRIPOS>SUBSTRUCTURE
     1 SJ6         1 TEMP              0 ****  ****    0 ROOT
