@<TRIPOS>MOLECULE
SJ6
   43    46     1     0     0
SMALL
No Charge or Current Charge


@<TRIPOS>ATOM
      1 C10        -40.4520    96.5690   -30.8490 ca         1 SJ6      -0.092300
      2 C13        -42.7040    97.2980   -31.4450 ca         1 SJ6      -0.070000
      3 C15        -41.2150    98.8130   -30.2660 ca         1 SJ6      -0.070000
      4 C17        -43.5240    99.5940   -30.8660 cc         1 SJ6       0.592200
      5 C20        -45.3050   100.6920   -31.1330 ca         1 SJ6       0.054400
      6 C22        -44.7100   102.7910   -30.0780 ca         1 SJ6      -0.097000
      7 C24        -46.9270   102.4790   -31.0670 ca         1 SJ6      -0.128000
      8 C1         -38.4600    93.2650   -25.0590 ca         1 SJ6      -0.173000
      9 C2         -39.4230    92.2570   -25.2170 ca         1 SJ6       0.349900
     10 C4         -39.8830    92.9420   -27.3850 ca         1 SJ6       0.355900
     11 C5         -38.9360    93.9830   -27.3210 ca         1 SJ6      -0.195600
     12 C6         -38.2080    94.1450   -26.1230 ca         1 SJ6      -0.020000
     13 C7         -38.6980    94.9050   -28.4840 c          1 SJ6       0.615700
     14 C11        -39.3700    95.4990   -30.8370 c3         1 SJ6       0.151300
     15 C12        -41.7030    96.3110   -31.4390 ca         1 SJ6      -0.103000
     16 C14        -42.4730    98.5630   -30.8580 ca         1 SJ6      -0.115900
     17 C16        -40.2160    97.8250   -30.2610 ca         1 SJ6      -0.103000
     18 C19        -44.4100   101.4820   -30.4740 ca         1 SJ6       0.039100
     19 C23        -45.9930   103.2980   -30.3830 ca         1 SJ6      -0.055300
     20 C25        -46.5860   101.1620   -31.4490 ca         1 SJ6      -0.043000
     21 N3         -40.1270    92.0920   -26.3600 nb         1 SJ6      -0.668000
     22 N9         -39.4420    94.6830   -29.6230 ns         1 SJ6      -0.503900
     23 N21        -44.7540    99.4580   -31.4010 nd         1 SJ6      -0.569100
     24 O8         -37.8800    95.8130   -28.4270 o          1 SJ6      -0.613100
     25 O18        -43.2440   100.8230   -30.2750 os         1 SJ6      -0.292700
     26 H1         -43.6630    97.0730   -31.9080 ha         1 SJ6       0.135500
     27 H2         -41.0010    99.7750   -29.8030 ha         1 SJ6       0.135500
     28 H3         -43.9730   103.3930   -29.5510 ha         1 SJ6       0.133000
     29 H4         -47.9170   102.8630   -31.3010 ha         1 SJ6       0.117000
     30 H5         -46.8670   104.7150   -28.9940 hc         1 SJ6       0.045700
     31 H6         -45.4930   105.3610   -29.9070 hc         1 SJ6       0.045700
     32 H7         -47.0620   105.1650   -30.6970 hc         1 SJ6       0.045700
     33 H9         -39.6380    91.5600   -24.4070 h4         1 SJ6       0.023100
     34 H10        -40.4770    92.7660   -28.2800 h4         1 SJ6       0.014100
     35 H11        -37.4640    94.9330   -26.0160 ha         1 SJ6       0.145000
     36 H12        -39.4920    94.8420   -31.7090 h1         1 SJ6       0.067200
     37 H13        -38.3800    95.9670   -30.9180 h1         1 SJ6       0.067200
     38 H14        -41.9030    95.3430   -31.8940 ha         1 SJ6       0.124000
     39 H15        -39.2540    98.0350   -29.7970 ha         1 SJ6       0.124000
     40 H16        -47.2970   100.5290   -31.9740 ha         1 SJ6       0.134000
     41 H17        -40.1040    93.9190   -29.6050 hn         1 SJ6       0.316500
     42 C26        -46.3740   104.7120   -29.9730 c3         1 SJ6      -0.049800
     43 H8         -37.9200    93.3580   -24.1210 ha         1 SJ6       0.129000
@<TRIPOS>BOND
     1     1    14 1   
     2     1    15 ar  
     3     1    17 ar  
     4     2    15 ar  
     5     2    16 ar  
     6     2    26 1   
     7     3    16 ar  
     8     3    17 ar  
     9     3    27 1   
    10     4    16 1   
    11     4    23 2   
    12     4    25 1   
    13     5    18 ar  
    14     5    20 ar  
    15     5    23 1   
    16     6    18 ar  
    17     6    19 ar  
    18     6    28 1   
    19     7    19 ar  
    20     7    20 ar  
    21     7    29 1   
    22     8     9 ar  
    23     8    12 ar  
    24     8    43 1   
    25     9    21 ar  
    26     9    33 1   
    27    10    11 ar  
    28    10    21 ar  
    29    10    34 1   
    30    11    12 ar  
    31    11    13 1   
    32    12    35 1   
    33    13    22 1   
    34    13    24 2   
    35    14    22 1   
    36    14    36 1   
    37    14    37 1   
    38    15    38 1   
    39    17    39 1   
    40    18    25 1   
    41    19    42 1   
    42    20    40 1   
    43    22    41 1   
    44    30    42 1   
    45    31    42 1   
    46    32    42 1   
@<TRIPOS>SUBSTRUCTURE
     1 SJ6         1 TEMP              0 ****  ****    0 ROOT
