@<TRIPOS>MOLECULE
SJ8
   18    18     1     0     0
SMALL
abcg2


@<TRIPOS>ATOM
      1 C1          -4.0660    22.1310    18.0620 ce         1 SJ8      -0.243200
      2 C3          -4.9160    23.3210    18.1350 ca         1 SJ8      -0.008800
      3 C4          -5.1210    24.0530    19.3090 ca         1 SJ8      -0.101000
      4 C5          -5.9350    25.1720    19.3280 ca         1 SJ8      -0.154500
      5 C6          -6.5520    25.5670    18.1530 ca         1 SJ8       0.126000
      6 C8          -5.5580    23.7590    16.9740 ca         1 SJ8      -0.101000
      7 C           -2.5380    20.3120    18.8640 c          1 SJ8       0.697200
      8 O           -1.9830    19.8830    19.8960 o          1 SJ8      -0.721000
      9 CH3         -3.4000    21.5440    19.0590 cf         1 SJ8      -0.211200
     10 C7          -6.3770    24.8780    16.9710 ca         1 SJ8      -0.154500
     11 F1          -7.3420    26.6520    18.1670 f          1 SJ8      -0.202000
     12 O1          -2.4530    19.8400    17.7120 o          1 SJ8      -0.721000
     13 H1          -3.9820    21.6870    17.0740 ha         1 SJ8       0.191000
     14 H2          -4.6410    23.7520    20.2310 ha         1 SJ8       0.117500
     15 H3          -6.0870    25.7320    20.2410 ha         1 SJ8       0.113500
     16 H4          -5.4160    23.2130    16.0500 ha         1 SJ8       0.117500
     17 H5          -3.4520    21.9410    20.0690 ha         1 SJ8       0.142000
     18 H6          -6.8690    25.2050    16.0640 ha         1 SJ8       0.113500
@<TRIPOS>BOND
     1     1     2 1   
     2     1     9 2   
     3     1    13 1   
     4     2     3 ar  
     5     2     6 ar  
     6     3     4 ar  
     7     3    14 1   
     8     4     5 ar  
     9     4    15 1   
    10     5    10 ar  
    11     5    11 1   
    12     6    10 ar  
    13     6    16 1   
    14     7     8 1   
    15     7     9 1   
    16     7    12 1   
    17     9    17 1   
    18    10    18 1   
@<TRIPOS>SUBSTRUCTURE
     1 SJ8         1 TEMP              0 ****  ****    0 ROOT
