@<TRIPOS>MOLECULE
SJ8
   18    18     1     0     0
SMALL
No Charge or Current Charge


@<TRIPOS>ATOM
      1 C1          -4.0650    22.1160    18.0540 ce         1 SJ8      -0.243200
      2 C3          -4.9330    23.3290    18.1110 ca         1 SJ8      -0.008800
      3 C4          -5.1300    24.0440    19.3120 ca         1 SJ8      -0.101000
      4 C5          -5.9540    25.1850    19.3340 ca         1 SJ8      -0.154500
      5 C6          -6.5840    25.6160    18.1570 ca         1 SJ8       0.126000
      6 C8          -5.5720    23.7740    16.9350 ca         1 SJ8      -0.101000
      7 C           -2.5070    20.2860    18.9010 c          1 SJ8       0.697200
      8 O           -1.9360    19.8680    19.8960 o          1 SJ8      -0.721000
      9 CH3         -3.3550    21.5080    19.0560 cf         1 SJ8      -0.211200
     10 C7          -6.3960    24.9140    16.9580 ca         1 SJ8      -0.154500
     11 F1          -7.3740    26.7110    18.1790 f          1 SJ8      -0.202000
     12 O1          -2.4200    19.7600    17.8020 o          1 SJ8      -0.721000
     13 H1          -4.0060    21.6670    17.0600 ha         1 SJ8       0.191000
     14 H2          -4.6510    23.7250    20.2330 ha         1 SJ8       0.117500
     15 H3          -6.1030    25.7320    20.2610 ha         1 SJ8       0.113500
     16 H4          -5.4320    23.2360    16.0000 ha         1 SJ8       0.117500
     17 H5          -3.3840    21.9190    20.0620 ha         1 SJ8       0.142000
     18 H6          -6.8860    25.2530    16.0480 ha         1 SJ8       0.113500
@<TRIPOS>BOND
     1     1     2 1   
     2     1     9 2   
     3     1    13 1   
     4     2     3 ar  
     5     2     6 ar  
     6     3     4 ar  
     7     3    14 1   
     8     4     5 ar  
     9     4    15 1   
    10     5    10 ar  
    11     5    11 1   
    12     6    10 ar  
    13     6    16 1   
    14     7     8 1   
    15     7     9 1   
    16     7    12 1   
    17     9    17 1   
    18    10    18 1   
@<TRIPOS>SUBSTRUCTURE
     1 SJ8         1 TEMP              0 ****  ****    0 ROOT
