@<TRIPOS>MOLECULE
SJ9
   48    51     1     0     0
SMALL
abcg2


@<TRIPOS>ATOM
      1 C1         -20.1110   -21.3380    13.8000 ca         1 SJ9      -0.092300
      2 C2         -19.4310   -21.9820    14.8360 ca         1 SJ9      -0.101000
      3 C4         -20.4390   -19.8630    13.9460 c3         1 SJ9       0.152300
      4 C5         -20.1080   -23.4150    12.5600 ca         1 SJ9      -0.110500
      5 C6         -19.4300   -24.0490    13.5950 ca         1 SJ9      -0.119000
      6 C9         -22.6870   -19.5310    13.0180 c          1 SJ9       0.615700
      7 C10        -23.4990   -18.9660    11.9000 ca         1 SJ9      -0.202600
      8 C11        -24.7400   -19.5800    11.6220 ca         1 SJ9      -0.071000
      9 C12        -23.0780   -17.8680    11.1570 ca         1 SJ9      -0.043000
     10 C13        -23.8930   -17.3840    10.1300 ca         1 SJ9      -0.104800
     11 C14        -25.1290   -18.0320     9.8580 ca         1 SJ9      -0.048200
     12 C15        -27.0260   -21.3890     5.9810 ca         1 SJ9       0.066000
     13 C16        -25.5600   -19.1320    10.6040 ca         1 SJ9      -0.136000
     14 C17        -23.7930   -16.3030     9.2040 cc         1 SJ9      -0.252200
     15 C18        -24.9150   -16.3200     8.4100 cd         1 SJ9      -0.076300
     16 C20        -27.0090   -19.0440     7.5020 ca         1 SJ9      -0.048300
     17 C21        -25.9080   -19.3750     6.7170 ca         1 SJ9      -0.099000
     18 C22        -28.1100   -19.8980     7.5210 ca         1 SJ9      -0.127000
     19 C23        -25.9290   -20.5370     5.9700 ca         1 SJ9       0.171000
     20 C24        -25.2060   -15.3880     7.2540 c          1 SJ9       0.720200
     21 C3         -20.4450   -22.0670    12.6630 ca         1 SJ9      -0.101000
     22 C7         -19.0920   -23.3260    14.7370 ca         1 SJ9      -0.110500
     23 C8         -28.1240   -21.0630     6.7650 ca         1 SJ9      -0.089000
     24 F          -24.8550   -20.8500     5.2150 f          1 SJ9      -0.172000
     25 N1         -21.3500   -19.3390    12.9510 ns         1 SJ9      -0.512900
     26 N2         -25.7330   -17.3780     8.8150 na         1 SJ9      -0.082700
     27 O1         -23.2060   -20.1480    13.9530 o          1 SJ9      -0.623100
     28 O2         -24.5060   -14.3470     7.2120 o          1 SJ9      -0.704000
     29 O3         -26.0900   -15.7320     6.4280 o          1 SJ9      -0.704000
     30 H1         -19.1700   -21.4260    15.7300 ha         1 SJ9       0.113500
     31 H2         -19.5190   -19.2800    13.8860 h1         1 SJ9       0.056700
     32 H3         -20.8660   -19.6900    14.9350 h1         1 SJ9       0.056700
     33 H4         -20.3790   -23.9680    11.6690 ha         1 SJ9       0.107500
     34 H5         -19.1700   -25.0970    13.5170 ha         1 SJ9       0.105000
     35 H6         -25.0380   -20.4290    12.2200 ha         1 SJ9       0.117000
     36 H7         -22.1460   -17.3640    11.3800 ha         1 SJ9       0.101000
     37 H8         -26.4990   -19.6270    10.3940 ha         1 SJ9       0.109000
     38 H9         -22.9860   -15.5960     9.1140 ha         1 SJ9       0.214000
     39 H10        -27.3770   -16.9480     7.6630 h1         1 SJ9       0.088700
     40 H11        -27.7270   -17.8680     9.1360 h1         1 SJ9       0.088700
     41 H12        -25.0310   -18.7440     6.6800 ha         1 SJ9       0.165000
     42 H13        -28.9650   -19.6580     8.1400 ha         1 SJ9       0.114000
     43 H14        -20.9760   -21.5840    11.8530 ha         1 SJ9       0.113500
     44 H15        -18.5670   -23.8100    15.5510 ha         1 SJ9       0.107500
     45 H16        -28.9780   -21.7260     6.7850 ha         1 SJ9       0.119000
     46 H17        -20.9570   -18.9410    12.1140 hn         1 SJ9       0.318500
     47 C19        -27.0360   -17.7600     8.2990 c3         1 SJ9       0.115900
     48 CL         -27.0070   -22.8460     5.0300 cl         1 SJ9      -0.208000
@<TRIPOS>BOND
     1     1     2 ar  
     2     1     3 1   
     3     1    21 ar  
     4     2    22 ar  
     5     2    30 1   
     6     3    25 1   
     7     3    31 1   
     8     3    32 1   
     9     4     5 ar  
    10     4    21 ar  
    11     4    33 1   
    12     5    22 ar  
    13     5    34 1   
    14     6     7 1   
    15     6    25 1   
    16     6    27 2   
    17     7     8 ar  
    18     7     9 ar  
    19     8    13 ar  
    20     8    35 1   
    21     9    10 ar  
    22     9    36 1   
    23    10    11 ar  
    24    10    14 1   
    25    11    13 ar  
    26    11    26 1   
    27    12    19 ar  
    28    12    23 ar  
    29    12    48 1   
    30    13    37 1   
    31    14    15 2   
    32    14    38 1   
    33    15    20 1   
    34    15    26 1   
    35    16    17 ar  
    36    16    18 ar  
    37    16    47 1   
    38    17    19 ar  
    39    17    41 1   
    40    18    23 ar  
    41    18    42 1   
    42    19    24 1   
    43    20    28 1   
    44    20    29 1   
    45    21    43 1   
    46    22    44 1   
    47    23    45 1   
    48    25    46 1   
    49    26    47 1   
    50    39    47 1   
    51    40    47 1   
@<TRIPOS>SUBSTRUCTURE
     1 SJ9         1 TEMP              0 ****  ****    0 ROOT
