@<TRIPOS>MOLECULE
SJ9
   48    51     1     0     0
SMALL
No Charge or Current Charge


@<TRIPOS>ATOM
      1 C1         -19.9670   -21.1610    13.9580 ca         1 SJ9      -0.092300
      2 C2         -20.5020   -22.4570    14.0900 ca         1 SJ9      -0.101000
      3 C4         -20.7680   -19.9500    14.4130 c3         1 SJ9       0.152300
      4 C5         -17.9480   -22.1150    12.9710 ca         1 SJ9      -0.110500
      5 C6         -18.4870   -23.4060    13.1080 ca         1 SJ9      -0.119000
      6 C9         -22.9790   -19.7650    13.2200 c          1 SJ9       0.615700
      7 C10        -23.6940   -19.1790    12.0210 ca         1 SJ9      -0.202600
      8 C11        -25.0770   -19.4550    11.8280 ca         1 SJ9      -0.071000
      9 C12        -23.0230   -18.3600    11.0720 ca         1 SJ9      -0.043000
     10 C13        -23.7550   -17.8570     9.9900 ca         1 SJ9      -0.104800
     11 C14        -25.0820   -18.1210     9.8120 ca         1 SJ9      -0.048200
     12 C15        -27.9800   -21.3690     6.2910 ca         1 SJ9       0.066000
     13 C16        -25.7790   -18.9290    10.7220 ca         1 SJ9      -0.136000
     14 C17        -23.3350   -17.0330     8.8990 cc         1 SJ9      -0.252200
     15 C18        -24.4420   -16.8240     8.0720 cd         1 SJ9      -0.076300
     16 C20        -27.3050   -18.9190     7.5280 ca         1 SJ9      -0.048300
     17 C21        -26.3970   -19.5480     6.6500 ca         1 SJ9      -0.099000
     18 C22        -28.5550   -19.5240     7.7740 ca         1 SJ9      -0.127000
     19 C23        -26.7330   -20.7660     6.0380 ca         1 SJ9       0.171000
     20 C24        -24.3830   -16.0240     6.7980 c          1 SJ9       0.720200
     21 C3         -18.6860   -20.9960    13.3940 ca         1 SJ9      -0.101000
     22 C7         -19.7640   -23.5770    13.6670 ca         1 SJ9      -0.110500
     23 C8         -28.8910   -20.7440     7.1590 ca         1 SJ9      -0.089000
     24 F          -25.8470   -21.3550     5.2010 f          1 SJ9      -0.172000
     25 N1         -21.6440   -19.4580    13.3490 ns         1 SJ9      -0.512900
     26 N2         -25.5520   -17.5010     8.6590 na         1 SJ9      -0.082700
     27 O1         -23.5520   -20.4740    14.0370 o          1 SJ9      -0.623100
     28 O2         -23.3160   -15.5170     6.4770 o          1 SJ9      -0.704000
     29 O3         -25.3910   -15.9080     6.1160 o          1 SJ9      -0.704000
     30 H1         -21.4920   -22.5970    14.5200 ha         1 SJ9       0.113500
     31 H2         -20.0830   -19.1420    14.7030 h1         1 SJ9       0.056700
     32 H3         -21.3630   -20.2080    15.3000 h1         1 SJ9       0.056700
     33 H4         -16.9590   -21.9820    12.5370 ha         1 SJ9       0.107500
     34 H5         -17.9160   -24.2720    12.7800 ha         1 SJ9       0.105000
     35 H6         -25.6130   -20.0820    12.5370 ha         1 SJ9       0.117000
     36 H7         -21.9680   -18.1160    11.1580 ha         1 SJ9       0.101000
     37 H8         -26.8340   -19.1530    10.5870 ha         1 SJ9       0.109000
     38 H9         -22.3350   -16.6450     8.7180 ha         1 SJ9       0.214000
     39 H10        -27.1810   -16.7700     7.5240 h1         1 SJ9       0.088700
     40 H11        -27.6020   -17.4540     9.0820 h1         1 SJ9       0.088700
     41 H12        -25.4310   -19.0990     6.4370 ha         1 SJ9       0.165000
     42 H13        -29.2690   -19.0500     8.4440 ha         1 SJ9       0.114000
     43 H14        -18.2620   -20.0000    13.2830 ha         1 SJ9       0.113500
     44 H15        -20.1830   -24.5750    13.7720 ha         1 SJ9       0.107500
     45 H16        -29.8560   -21.2040     7.3560 ha         1 SJ9       0.119000
     46 H17        -21.2400   -18.8720    12.6310 hn         1 SJ9       0.318500
     47 C19        -26.9560   -17.5950     8.2070 c3         1 SJ9       0.115900
     48 Cl         -28.4190   -22.8980     5.5300 cl         1 SJ9      -0.208000
@<TRIPOS>BOND
     1     1     2 ar  
     2     1     3 1   
     3     1    21 ar  
     4     2    22 ar  
     5     2    30 1   
     6     3    25 1   
     7     3    31 1   
     8     3    32 1   
     9     4     5 ar  
    10     4    21 ar  
    11     4    33 1   
    12     5    22 ar  
    13     5    34 1   
    14     6     7 1   
    15     6    25 1   
    16     6    27 2   
    17     7     8 ar  
    18     7     9 ar  
    19     8    13 ar  
    20     8    35 1   
    21     9    10 ar  
    22     9    36 1   
    23    10    11 ar  
    24    10    14 1   
    25    11    13 ar  
    26    11    26 1   
    27    12    19 ar  
    28    12    23 ar  
    29    12    48 1   
    30    13    37 1   
    31    14    15 2   
    32    14    38 1   
    33    15    20 1   
    34    15    26 1   
    35    16    17 ar  
    36    16    18 ar  
    37    16    47 1   
    38    17    19 ar  
    39    17    41 1   
    40    18    23 ar  
    41    18    42 1   
    42    19    24 1   
    43    20    28 1   
    44    20    29 1   
    45    21    43 1   
    46    22    44 1   
    47    23    45 1   
    48    25    46 1   
    49    26    47 1   
    50    39    47 1   
    51    40    47 1   
@<TRIPOS>SUBSTRUCTURE
     1 SJ9         1 TEMP              0 ****  ****    0 ROOT
