@<TRIPOS>MOLECULE
SJA
   39    40     1     0     0
SMALL
abcg2


@<TRIPOS>ATOM
      1 C10         36.6950   -36.3970    20.8630 c2         1 SJA      -0.125400
      2 C13         33.6790   -33.1050    20.4760 c2         1 SJA      -0.105400
      3 C15         32.3290   -32.5810    20.8810 c3         1 SJA      -0.057900
      4 C01         33.7900   -38.5020    18.1820 c3         1 SJA      -0.086100
      5 C02         33.9830   -37.3390    19.1490 c6         1 SJA      -0.057700
      6 C03         32.6380   -36.7000    19.4840 c6         1 SJA      -0.072400
      7 C04         32.7650   -35.4910    20.4020 c6         1 SJA      -0.067400
      8 C05         33.6810   -34.4430    19.7650 c6         1 SJA      -0.017500
      9 C06         35.0640   -35.0530    19.5030 c6         1 SJA      -0.014500
     10 C07         34.9620   -36.2910    18.5980 c6         1 SJA      -0.049700
     11 C08         36.3770   -36.8320    18.3920 c6         1 SJA      -0.068400
     12 C09         36.9990   -37.3040    19.7030 c6         1 SJA      -0.038200
     13 C11         35.8180   -35.3970    20.7630 c2         1 SJA      -0.210200
     14 C12         37.4100   -36.7080    22.1430 c3         1 SJA      -0.050900
     15 C14         34.7690   -32.3650    20.6800 c2         1 SJA      -0.330000
     16 H2          32.3820   -31.5350    21.1810 hc         1 SJA       0.038367
     17 H3          31.6110   -32.6660    20.0620 hc         1 SJA       0.038367
     18 H4          31.9140   -33.1460    21.7180 hc         1 SJA       0.038367
     19 H5          33.0500   -39.2060    18.5660 hc         1 SJA       0.031033
     20 H6          33.4360   -38.1470    17.2110 hc         1 SJA       0.031033
     21 H7          34.7120   -39.0600    18.0160 hc         1 SJA       0.031033
     22 H8          34.3860   -37.7430    20.0850 hc         1 SJA       0.054700
     23 H9          32.1450   -36.3870    18.5550 hc         1 SJA       0.036200
     24 H10         31.9840   -37.4490    19.9390 hc         1 SJA       0.036200
     25 H11         31.7710   -35.0790    20.5850 hc         1 SJA       0.042700
     26 H12         33.1600   -35.7940    21.3780 hc         1 SJA       0.042700
     27 H13         33.2460   -34.2310    18.7760 hc         1 SJA       0.049700
     28 H14         35.6440   -34.3070    18.9430 hc         1 SJA       0.054700
     29 H15         34.5740   -35.9620    17.6250 hc         1 SJA       0.043700
     30 H16         36.3930   -37.6420    17.6600 hc         1 SJA       0.040200
     31 H17         36.9900   -36.0320    17.9690 hc         1 SJA       0.040200
     32 H18         36.6530   -38.3140    19.9520 hc         1 SJA       0.042700
     33 H19         38.0840   -37.3980    19.5890 hc         1 SJA       0.042700
     34 H20         35.6320   -34.7830    21.6390 ha         1 SJA       0.175000
     35 H22         37.1300   -36.0230    22.9430 hc         1 SJA       0.037367
     36 H23         37.1920   -37.7250    22.4780 hc         1 SJA       0.037367
     37 H24         38.4940   -36.6510    22.0130 hc         1 SJA       0.037367
     38 H25         34.6970   -31.3850    21.1360 ha         1 SJA       0.163500
     39 H26         35.7640   -32.6880    20.4070 ha         1 SJA       0.163500
@<TRIPOS>BOND
     1     1    12 1   
     2     1    13 2   
     3     1    14 1   
     4     2     3 1   
     5     2     8 1   
     6     2    15 2   
     7     3    16 1   
     8     3    17 1   
     9     3    18 1   
    10     4     5 1   
    11     4    19 1   
    12     4    20 1   
    13     4    21 1   
    14     5     6 1   
    15     5    10 1   
    16     5    22 1   
    17     6     7 1   
    18     6    23 1   
    19     6    24 1   
    20     7     8 1   
    21     7    25 1   
    22     7    26 1   
    23     8     9 1   
    24     8    27 1   
    25     9    10 1   
    26     9    13 1   
    27     9    28 1   
    28    10    11 1   
    29    10    29 1   
    30    11    12 1   
    31    11    30 1   
    32    11    31 1   
    33    12    32 1   
    34    12    33 1   
    35    13    34 1   
    36    14    35 1   
    37    14    36 1   
    38    14    37 1   
    39    15    38 1   
    40    15    39 1   
@<TRIPOS>SUBSTRUCTURE
     1 SJA         1 TEMP              0 ****  ****    0 ROOT
