@<TRIPOS>MOLECULE
SJA
   39    40     1     0     0
SMALL
No Charge or Current Charge


@<TRIPOS>ATOM
      1 C10         36.7150   -36.3780    20.8690 c2         1 SJA      -0.125400
      2 C13         33.6790   -33.0580    20.5080 c2         1 SJA      -0.105400
      3 C15         32.3290   -32.5520    20.9980 c3         1 SJA      -0.057900
      4 C01         33.7950   -38.6090    18.2250 c3         1 SJA      -0.086100
      5 C02         33.9580   -37.3600    19.1380 c6         1 SJA      -0.057700
      6 C03         32.5790   -36.7040    19.3990 c6         1 SJA      -0.072400
      7 C04         32.6910   -35.4620    20.3160 c6         1 SJA      -0.067400
      8 C05         33.6570   -34.3940    19.7150 c6         1 SJA      -0.017500
      9 C06         35.0640   -35.0440    19.4700 c6         1 SJA      -0.014500
     10 C07         34.9650   -36.3060    18.5570 c6         1 SJA      -0.049700
     11 C08         36.4040   -36.8650    18.3600 c6         1 SJA      -0.068400
     12 C09         37.0540   -37.3030    19.6990 c6         1 SJA      -0.038200
     13 C11         35.8180   -35.3790    20.7620 c2         1 SJA      -0.210200
     14 C12         37.4410   -36.7010    22.1600 c3         1 SJA      -0.050900
     15 C14         34.7870   -32.3180    20.7060 c2         1 SJA      -0.330000
     16 H2          32.3970   -31.5310    21.3910 hc         1 SJA       0.038367
     17 H3          31.5930   -32.5370    20.1850 hc         1 SJA       0.038367
     18 H4          31.9340   -33.1780    21.8060 hc         1 SJA       0.038367
     19 H5          33.0310   -39.2890    18.6210 hc         1 SJA       0.031033
     20 H6          33.4930   -38.3250    17.2100 hc         1 SJA       0.031033
     21 H7          34.7250   -39.1840    18.1530 hc         1 SJA       0.031033
     22 H8          34.3310   -37.7360    20.1010 hc         1 SJA       0.054700
     23 H9          32.1170   -36.4140    18.4450 hc         1 SJA       0.036200
     24 H10         31.9000   -37.4330    19.8610 hc         1 SJA       0.036200
     25 H11         31.6810   -35.0530    20.4390 hc         1 SJA       0.042700
     26 H12         33.0320   -35.7610    21.3170 hc         1 SJA       0.042700
     27 H13         33.2510   -34.1370    18.7260 hc         1 SJA       0.049700
     28 H14         35.6680   -34.3090    18.9210 hc         1 SJA       0.054700
     29 H15         34.5920   -35.9860    17.5740 hc         1 SJA       0.043700
     30 H16         36.4150   -37.6960    17.6430 hc         1 SJA       0.040200
     31 H17         37.0270   -36.0820    17.9060 hc         1 SJA       0.040200
     32 H18         36.7280   -38.3230    19.9460 hc         1 SJA       0.042700
     33 H19         38.1440   -37.3560    19.5670 hc         1 SJA       0.042700
     34 H20         35.5910   -34.7590    21.6300 ha         1 SJA       0.175000
     35 H22         37.1500   -36.0230    22.9710 hc         1 SJA       0.037367
     36 H23         37.2210   -37.7240    22.4900 hc         1 SJA       0.037367
     37 H24         38.5270   -36.6170    22.0330 hc         1 SJA       0.037367
     38 H25         34.7470   -31.3710    21.2450 ha         1 SJA       0.163500
     39 H26         35.7730   -32.6060    20.3460 ha         1 SJA       0.163500
@<TRIPOS>BOND
     1     1    12 1   
     2     1    13 2   
     3     1    14 1   
     4     2     3 1   
     5     2     8 1   
     6     2    15 2   
     7     3    16 1   
     8     3    17 1   
     9     3    18 1   
    10     4     5 1   
    11     4    19 1   
    12     4    20 1   
    13     4    21 1   
    14     5     6 1   
    15     5    10 1   
    16     5    22 1   
    17     6     7 1   
    18     6    23 1   
    19     6    24 1   
    20     7     8 1   
    21     7    25 1   
    22     7    26 1   
    23     8     9 1   
    24     8    27 1   
    25     9    10 1   
    26     9    13 1   
    27     9    28 1   
    28    10    11 1   
    29    10    29 1   
    30    11    12 1   
    31    11    30 1   
    32    11    31 1   
    33    12    32 1   
    34    12    33 1   
    35    13    34 1   
    36    14    35 1   
    37    14    36 1   
    38    14    37 1   
    39    15    38 1   
    40    15    39 1   
@<TRIPOS>SUBSTRUCTURE
     1 SJA         1 TEMP              0 ****  ****    0 ROOT
