@<TRIPOS>MOLECULE
SJC
  108   112     1     0     0
SMALL
No Charge or Current Charge


@<TRIPOS>ATOM
      1 C01         18.8750    16.9710    -0.5520 c3         1 SJC      -0.084100
      2 C02         18.1420    17.7840     0.5530 c5         1 SJC       0.038400
      3 C03         19.1890    18.6810     1.2520 c2         1 SJC      -0.189200
      4 C04         19.0610    19.9290     1.7810 c2         1 SJC      -0.088400
      5 C05         17.8690    20.9150     1.9780 c5         1 SJC       0.009200
      6 C06         18.4530    21.9330     3.0410 c5         1 SJC      -0.084400
      7 C07         19.9100    22.1990     2.5920 c5         1 SJC      -0.069400
      8 C08         20.3380    20.7070     2.2880 c5         1 SJC      -0.038500
      9 C09         21.6170    20.6490     1.3770 c3         1 SJC       0.163600
     10 C12         16.5890    20.3180     2.6260 c3         1 SJC      -0.078100
     11 C13         17.4810    21.7000     0.6530 c3         1 SJC      -0.100400
     12 C14         16.6060    21.0190    -0.4510 c3         1 SJC       0.171300
     13 C16         17.2650    19.7090    -0.9930 c3         1 SJC       0.247500
     14 C18         17.5530    19.9750    -3.3970 c6         1 SJC       0.362300
     15 C19         16.6090    20.4280    -4.5510 c6         1 SJC       0.112300
     16 C21         15.9580    19.1760    -5.2030 c6         1 SJC       0.148300
     17 C23         17.0470    18.1600    -5.6550 c6         1 SJC       0.152300
     18 C25         17.9470    17.8030    -4.4300 c6         1 SJC       0.127300
     19 C26         19.1200    16.8400    -4.7820 c3         1 SJC       0.165600
     20 C29         21.9840    16.2220    -5.2270 c3         1 SJC      -0.097600
     21 C30         20.3880    15.3870    -7.0580 c2         1 SJC      -0.257200
     22 C31         20.9910    14.2120    -7.3170 c2         1 SJC      -0.307000
     23 C32         21.7110    17.4900    -7.4180 c3         1 SJC      -0.097600
     24 C34         16.9920    18.4990    -0.1200 c2         1 SJC      -0.136400
     25 C35         15.8350    17.8420     0.0640 c2         1 SJC      -0.079400
     26 C36         14.4450    18.1750    -0.5400 c3         1 SJC      -0.016500
     27 C37         14.1390    17.2090    -1.7190 c3         1 SJC       0.177800
     28 C39         12.5830    16.2880    -3.3880 c6         1 SJC       0.166300
     29 C40         11.1570    16.3570    -3.9890 c6         1 SJC      -0.073900
     30 C41         10.8840    17.7440    -4.6130 c6         1 SJC      -0.075400
     31 C42         11.1690    18.8540    -3.5760 c6         1 SJC      -0.073900
     32 C43         12.5950    18.7150    -2.9890 c6         1 SJC       0.166300
     33 C44         13.2640    18.2370     0.5000 c3         1 SJC      -0.080100
     34 C45         16.0360    16.6130     0.9360 c5         1 SJC      -0.090200
     35 C46         17.4510    16.7900     1.5740 c5         1 SJC       0.176300
     36 N38         12.8170    17.3660    -2.3870 n3         1 SJC      -0.725600
     37 O10         22.6700    21.3880     2.0210 os         1 SJC      -0.454000
     38 O15         16.3460    21.9840    -1.5020 oh         1 SJC      -0.740000
     39 O17         16.7880    19.4160    -2.3160 os         1 SJC      -0.491000
     40 O20         15.5910    21.3400    -4.0620 oh         1 SJC      -0.732000
     41 O22         15.1260    19.5680    -6.3090 oh         1 SJC      -0.647000
     42 O24         16.4140    16.9960    -6.2200 oh         1 SJC      -0.710000
     43 O27         19.9400    17.4090    -5.8370 os         1 SJC      -0.451000
     44 O33         18.5190    19.0070    -3.8510 os         1 SJC      -0.449000
     45 O47         17.3590    17.2750     2.9150 oh         1 SJC      -0.644000
     46 H011        19.6540    16.3280    -0.1250 hc         1 SJC       0.040700
     47 H012        18.1820    16.3240    -1.1040 hc         1 SJC       0.040700
     48 H013        19.3570    17.6330    -1.2810 hc         1 SJC       0.040700
     49 H031        20.1900    18.2550     1.2910 ha         1 SJC       0.165000
     50 H062        17.8700    22.8580     3.1100 hc         1 SJC       0.045700
     51 H061        18.4530    21.4970     4.0480 hc         1 SJC       0.045700
     52 H071        19.9540    22.8340     1.7000 hc         1 SJC       0.050200
     53 H072        20.5190    22.6710     3.3720 hc         1 SJC       0.050200
     54 H081        20.6420    20.2400     3.2330 hc         1 SJC       0.070700
     55 H092        21.9240    19.6060     1.2290 h1         1 SJC       0.022200
     56 H091        21.3800    21.0820     0.3970 h1         1 SJC       0.022200
     57 H113        24.6560    22.0090     1.8320 h1         1 SJC       0.027700
     58 H112        24.2970    20.4190     1.1230 h1         1 SJC       0.027700
     59 H111        23.7540    21.9060     0.3040 h1         1 SJC       0.027700
     60 H123        16.8200    19.8280     3.5780 hc         1 SJC       0.040700
     61 H122        15.8570    21.1060     2.8410 hc         1 SJC       0.040700
     62 H121        16.0810    19.5850     2.0010 hc         1 SJC       0.040700
     63 H132        18.4000    22.0480     0.1660 hc         1 SJC       0.045700
     64 H131        16.9500    22.6130     0.9490 hc         1 SJC       0.045700
     65 H141        15.6510    20.7500     0.0150 h1         1 SJC       0.049700
     66 H161        18.3520    19.8690    -1.0260 h1         1 SJC       0.054700
     67 H181        18.0920    20.8670    -3.0410 h2         1 SJC       0.078700
     68 H191        17.2340    20.9290    -5.3060 h1         1 SJC       0.086700
     69 H211        15.3440    18.6800    -4.4380 h1         1 SJC       0.051700
     70 H231        17.6770    18.6480    -6.4150 h1         1 SJC       0.062700
     71 H251        17.3320    17.3060    -3.6660 h1         1 SJC       0.061700
     72 H262        18.6930    15.8760    -5.0890 h1         1 SJC       0.038200
     73 H261        19.7060    16.6730    -3.8700 h1         1 SJC       0.038200
     74 H293        22.2390    17.1040    -4.6270 hc         1 SJC       0.044700
     75 H291        21.5500    15.4640    -4.5650 hc         1 SJC       0.044700
     76 H292        22.9170    15.8120    -5.6310 hc         1 SJC       0.044700
     77 H301        19.3540    15.5430    -7.3710 ha         1 SJC       0.180000
     78 H312        20.4640    13.4030    -7.8250 ha         1 SJC       0.166000
     79 H311        22.0270    14.0150    -7.0380 ha         1 SJC       0.166000
     80 H323        22.1250    18.3900    -6.9490 hc         1 SJC       0.044700
     81 H322        22.5320    16.9460    -7.9000 hc         1 SJC       0.044700
     82 H321        21.0060    17.8010    -8.1990 hc         1 SJC       0.044700
     83 H361        14.5040    19.1730    -0.9810 hc         1 SJC       0.073700
     84 H371        14.2110    16.1850    -1.3270 h1         1 SJC       0.025700
     85 H372        14.9400    17.3140    -2.4630 h1         1 SJC       0.025700
     86 H392        12.7180    15.3000    -2.9230 h1         1 SJC       0.031450
     87 H402        10.4180    16.1510    -3.2020 hc         1 SJC       0.044950
     88 H401        11.0350    15.5730    -4.7480 hc         1 SJC       0.044950
     89 H411         9.8450    17.8060    -4.9610 hc         1 SJC       0.038700
     90 H412        11.5240    17.8870    -5.4940 hc         1 SJC       0.038700
     91 H421        10.4320    18.8010    -2.7630 hc         1 SJC       0.044950
     92 H422        11.0530    19.8410    -4.0410 hc         1 SJC       0.044950
     93 H432        13.3240    18.9020    -3.7880 h1         1 SJC       0.031450
     94 H431        12.7270    19.5080    -2.2390 h1         1 SJC       0.031450
     95 H441        13.5280    18.8990     1.3340 hc         1 SJC       0.037033
     96 H443        12.3480    18.6240     0.0390 hc         1 SJC       0.037033
     97 H442        13.0490    17.2410     0.9050 hc         1 SJC       0.037033
     98 H452        15.2570    16.5240     1.7020 hc         1 SJC       0.055200
     99 H451        15.9860    15.7030     0.3280 hc         1 SJC       0.055200
    100 H461        17.9810    15.8270     1.5920 h1         1 SJC       0.036700
    101 H151        16.1100    22.8310    -1.0540 ho         1 SJC       0.511000
    102 H201        15.8100    21.4950    -3.0940 ho         1 SJC       0.543000
    103 H221        14.7010    20.4060    -6.0140 ho         1 SJC       0.455000
    104 H241        15.6610    17.3540    -6.7480 ho         1 SJC       0.506000
    105 H471        16.9080    16.5780     3.4360 ho         1 SJC       0.439000
    106 H391        13.3190    16.3630    -4.2030 h1         1 SJC       0.031450
    107 C11         23.9020    21.4310     1.2830 c3         1 SJC       0.146900
    108 C28         21.0090    16.5980    -6.3740 c3         1 SJC       0.217200
@<TRIPOS>BOND
     1     1     2 1   
     2     1    46 1   
     3     1    47 1   
     4     1    48 1   
     5     2     3 1   
     6     2    24 1   
     7     2    35 1   
     8     3     4 2   
     9     3    49 1   
    10     4     5 1   
    11     4     8 1   
    12     5     6 1   
    13     5    10 1   
    14     5    11 1   
    15     6     7 1   
    16     6    50 1   
    17     6    51 1   
    18     7     8 1   
    19     7    52 1   
    20     7    53 1   
    21     8     9 1   
    22     8    54 1   
    23     9    37 1   
    24     9    55 1   
    25     9    56 1   
    26    10    60 1   
    27    10    61 1   
    28    10    62 1   
    29    11    12 1   
    30    11    63 1   
    31    11    64 1   
    32    12    13 1   
    33    12    38 1   
    34    12    65 1   
    35    13    24 1   
    36    13    39 1   
    37    13    66 1   
    38    14    15 1   
    39    14    39 1   
    40    14    44 1   
    41    14    67 1   
    42    15    16 1   
    43    15    40 1   
    44    15    68 1   
    45    16    17 1   
    46    16    41 1   
    47    16    69 1   
    48    17    18 1   
    49    17    42 1   
    50    17    70 1   
    51    18    19 1   
    52    18    44 1   
    53    18    71 1   
    54    19    43 1   
    55    19    72 1   
    56    19    73 1   
    57    20    74 1   
    58    20    75 1   
    59    20    76 1   
    60    20   108 1   
    61    21    22 2   
    62    21    77 1   
    63    21   108 1   
    64    22    78 1   
    65    22    79 1   
    66    23    80 1   
    67    23    81 1   
    68    23    82 1   
    69    23   108 1   
    70    24    25 2   
    71    25    26 1   
    72    25    34 1   
    73    26    27 1   
    74    26    33 1   
    75    26    83 1   
    76    27    36 1   
    77    27    84 1   
    78    27    85 1   
    79    28    29 1   
    80    28    36 1   
    81    28    86 1   
    82    28   106 1   
    83    29    30 1   
    84    29    87 1   
    85    29    88 1   
    86    30    31 1   
    87    30    89 1   
    88    30    90 1   
    89    31    32 1   
    90    31    91 1   
    91    31    92 1   
    92    32    36 1   
    93    32    93 1   
    94    32    94 1   
    95    33    95 1   
    96    33    96 1   
    97    33    97 1   
    98    34    35 1   
    99    34    98 1   
   100    34    99 1   
   101    35    45 1   
   102    35   100 1   
   103    37   107 1   
   104    38   101 1   
   105    40   102 1   
   106    41   103 1   
   107    42   104 1   
   108    43   108 1   
   109    45   105 1   
   110    57   107 1   
   111    58   107 1   
   112    59   107 1   
@<TRIPOS>SUBSTRUCTURE
     1 SJC         1 TEMP              0 ****  ****    0 ROOT
