@<TRIPOS>MOLECULE
SJC
  108   112     1     0     0
SMALL
abcg2


@<TRIPOS>ATOM
      1 C01         19.7370    17.7730    -0.4990 c3         1 SJC      -0.084100
      2 C02         18.6730    18.2050     0.5290 c5         1 SJC       0.038400
      3 C03         19.3470    19.1520     1.4860 c2         1 SJC      -0.189200
      4 C04         18.9560    20.2660     2.1090 c2         1 SJC      -0.088400
      5 C05         17.5900    20.9560     2.2170 c5         1 SJC       0.009200
      6 C06         17.8280    21.9340     3.3910 c5         1 SJC      -0.084400
      7 C07         19.2710    22.3790     3.2670 c5         1 SJC      -0.069400
      8 C08         19.9920    21.0860     2.8860 c5         1 SJC      -0.038500
      9 C09         21.2650    21.3340     2.0930 c3         1 SJC       0.163600
     10 C12         16.4090    20.0610     2.5870 c3         1 SJC      -0.078100
     11 C13         17.2850    21.8030     0.9650 c3         1 SJC      -0.100400
     12 C14         16.6750    21.1560    -0.2790 c3         1 SJC       0.171300
     13 C16         17.5840    20.0920    -0.9210 c3         1 SJC       0.247500
     14 C18         18.2630    20.0940    -3.2450 c6         1 SJC       0.362300
     15 C19         17.7430    20.9550    -4.3960 c6         1 SJC       0.112300
     16 C21         16.6560    20.2220    -5.1850 c6         1 SJC       0.148300
     17 C23         17.1930    18.8770    -5.6440 c6         1 SJC       0.152300
     18 C25         17.7030    18.1050    -4.4180 c6         1 SJC       0.127300
     19 C26         18.3060    16.7570    -4.7500 c3         1 SJC       0.165600
     20 C29         19.6560    14.5140    -6.0260 c3         1 SJC      -0.097600
     21 C30         18.4980    16.0880    -7.6450 c2         1 SJC      -0.257200
     22 C31         17.5640    15.2030    -7.9780 c2         1 SJC      -0.307000
     23 C32         20.9250    16.2600    -7.2750 c3         1 SJC      -0.097600
     24 C34         17.4830    18.7570    -0.2290 c2         1 SJC      -0.136400
     25 C35         16.4830    17.8730    -0.3000 c2         1 SJC      -0.079400
     26 C36         15.1360    18.0120    -0.9540 c3         1 SJC      -0.016500
     27 C37         14.8460    16.7890    -1.8350 c3         1 SJC       0.177800
     28 C39         13.1710    15.5380    -3.0030 c6         1 SJC       0.166300
     29 C40         11.7690    15.5690    -3.5930 c6         1 SJC      -0.073900
     30 C41         11.6800    16.5960    -4.7140 c6         1 SJC      -0.075400
     31 C42         12.1780    17.9480    -4.2180 c6         1 SJC      -0.073900
     32 C43         13.5610    17.8230    -3.5970 c6         1 SJC       0.166300
     33 C44         14.0410    18.1740     0.1040 c3         1 SJC      -0.080100
     34 C45         16.8580    16.5900     0.3940 c5         1 SJC      -0.090200
     35 C46         18.1150    16.9230     1.2070 c5         1 SJC       0.176300
     36 N38         13.5710    16.8480    -2.5200 n3         1 SJC      -0.725600
     37 O10         22.1260    22.1500     2.8480 os         1 SJC      -0.454000
     38 O15         16.4740    22.1770    -1.2450 oh         1 SJC      -0.740000
     39 O17         17.2480    19.9800    -2.2960 os         1 SJC      -0.491000
     40 O20         17.3100    22.2170    -3.9630 oh         1 SJC      -0.732000
     41 O22         16.2690    20.9710    -6.3110 oh         1 SJC      -0.647000
     42 O24         16.1530    18.1820    -6.2900 oh         1 SJC      -0.710000
     43 O27         19.4150    16.9100    -5.6030 os         1 SJC      -0.451000
     44 O33         18.6870    18.8530    -3.7210 os         1 SJC      -0.449000
     45 O47         17.8330    17.1750     2.5610 oh         1 SJC      -0.644000
     46 H011        20.5930    17.3170     0.0030 hc         1 SJC       0.040700
     47 H012        19.3270    17.0470    -1.2020 hc         1 SJC       0.040700
     48 H013        20.1070    18.6230    -1.0730 hc         1 SJC       0.040700
     49 H031        20.3870    18.8760     1.6450 ha         1 SJC       0.165000
     50 H062        17.1110    22.7570     3.3950 hc         1 SJC       0.045700
     51 H061        17.6990    21.3930     4.3330 hc         1 SJC       0.045700
     52 H071        19.3830    23.1290     2.4780 hc         1 SJC       0.050200
     53 H072        19.6560    22.8240     4.1840 hc         1 SJC       0.050200
     54 H081        20.2540    20.5450     3.8040 hc         1 SJC       0.070700
     55 H092        21.7660    20.3890     1.8440 h1         1 SJC       0.022200
     56 H091        21.0040    21.8170     1.1380 h1         1 SJC       0.022200
     57 H113        23.9230    23.0870     2.8050 h1         1 SJC       0.027700
     58 H112        23.8810    21.5670     1.8930 h1         1 SJC       0.027700
     59 H111        23.1080    23.0170     1.2320 h1         1 SJC       0.027700
     60 H123        16.5910    19.5670     3.5400 hc         1 SJC       0.040700
     61 H122        15.5110    20.6750     2.6950 hc         1 SJC       0.040700
     62 H121        16.2060    19.2940     1.8510 hc         1 SJC       0.040700
     63 H132        18.1910    22.3290     0.6460 hc         1 SJC       0.045700
     64 H131        16.5760    22.5800     1.2760 hc         1 SJC       0.045700
     65 H141        15.7100    20.6990    -0.0250 h1         1 SJC       0.049700
     66 H161        18.6200    20.4490    -0.8380 h1         1 SJC       0.054700
     67 H181        19.1520    20.5610    -2.8030 h2         1 SJC       0.078700
     68 H191        18.5850    21.1260    -5.0770 h1         1 SJC       0.086700
     69 H211        15.7930    20.0420    -4.5220 h1         1 SJC       0.051700
     70 H231        18.0320    19.0550    -6.3310 h1         1 SJC       0.062700
     71 H251        16.8440    17.9030    -3.7620 h1         1 SJC       0.061700
     72 H262        17.5200    16.1340    -5.1910 h1         1 SJC       0.038200
     73 H261        18.6020    16.2610    -3.8160 h1         1 SJC       0.038200
     74 H293        20.4490    14.4590    -5.2790 hc         1 SJC       0.044700
     75 H291        18.7240    14.2080    -5.5490 hc         1 SJC       0.044700
     76 H292        19.8800    13.7840    -6.8030 hc         1 SJC       0.044700
     77 H301        18.5100    17.0500    -8.1560 ha         1 SJC       0.180000
     78 H312        16.8290    15.4280    -8.7390 ha         1 SJC       0.166000
     79 H311        17.4990    14.2240    -7.5210 ha         1 SJC       0.166000
     80 H323        21.7400    16.2000    -6.5510 hc         1 SJC       0.044700
     81 H322        21.1380    15.5610    -8.0820 hc         1 SJC       0.044700
     82 H321        20.9110    17.2670    -7.6950 hc         1 SJC       0.044700
     83 H361        15.1400    18.9080    -1.5770 hc         1 SJC       0.073700
     84 H371        14.8310    15.9020    -1.1960 h1         1 SJC       0.025700
     85 H372        15.6790    16.6400    -2.5450 h1         1 SJC       0.025700
     86 H392        13.2080    14.8340    -2.1680 h1         1 SJC       0.031450
     87 H402        11.0530    15.8190    -2.8040 hc         1 SJC       0.044950
     88 H401        11.5080    14.5720    -3.9570 hc         1 SJC       0.044950
     89 H411        10.6570    16.6740    -5.0880 hc         1 SJC       0.038700
     90 H412        12.2990    16.2680    -5.5560 hc         1 SJC       0.038700
     91 H421        11.4850    18.3440    -3.4700 hc         1 SJC       0.044950
     92 H422        12.2140    18.6720    -5.0350 hc         1 SJC       0.044950
     93 H432        14.2940    17.5550    -4.3790 h1         1 SJC       0.031450
     94 H431        13.8670    18.7960    -3.2070 h1         1 SJC       0.031450
     95 H441        14.2110    19.0560     0.7220 hc         1 SJC       0.037033
     96 H443        13.0660    18.2770    -0.3690 hc         1 SJC       0.037033
     97 H442        13.9970    17.3060     0.7650 hc         1 SJC       0.037033
     98 H452        16.0580    16.1860     1.0230 hc         1 SJC       0.055200
     99 H451        17.0700    15.8140    -0.3500 hc         1 SJC       0.055200
    100 H461        18.8520    16.1140     1.1280 h1         1 SJC       0.036700
    101 H151        15.9310    22.8690    -0.8530 ho         1 SJC       0.511000
    102 H201        16.8500    22.1200    -3.1120 ho         1 SJC       0.543000
    103 H221        16.0100    21.8440    -5.9990 ho         1 SJC       0.455000
    104 H241        16.5290    17.4500    -6.7910 ho         1 SJC       0.506000
    105 H471        17.4360    16.3790     2.9300 ho         1 SJC       0.439000
    106 H391        13.8740    15.1590    -3.7680 h1         1 SJC       0.031450
    107 C11         23.3060    22.4640     2.1580 c3         1 SJC       0.146900
    108 C28         19.5920    15.9190    -6.6170 c3         1 SJC       0.217200
@<TRIPOS>BOND
     1     1     2 1   
     2     1    46 1   
     3     1    47 1   
     4     1    48 1   
     5     2     3 1   
     6     2    24 1   
     7     2    35 1   
     8     3     4 2   
     9     3    49 1   
    10     4     5 1   
    11     4     8 1   
    12     5     6 1   
    13     5    10 1   
    14     5    11 1   
    15     6     7 1   
    16     6    50 1   
    17     6    51 1   
    18     7     8 1   
    19     7    52 1   
    20     7    53 1   
    21     8     9 1   
    22     8    54 1   
    23     9    37 1   
    24     9    55 1   
    25     9    56 1   
    26    10    60 1   
    27    10    61 1   
    28    10    62 1   
    29    11    12 1   
    30    11    63 1   
    31    11    64 1   
    32    12    13 1   
    33    12    38 1   
    34    12    65 1   
    35    13    24 1   
    36    13    39 1   
    37    13    66 1   
    38    14    15 1   
    39    14    39 1   
    40    14    44 1   
    41    14    67 1   
    42    15    16 1   
    43    15    40 1   
    44    15    68 1   
    45    16    17 1   
    46    16    41 1   
    47    16    69 1   
    48    17    18 1   
    49    17    42 1   
    50    17    70 1   
    51    18    19 1   
    52    18    44 1   
    53    18    71 1   
    54    19    43 1   
    55    19    72 1   
    56    19    73 1   
    57    20    74 1   
    58    20    75 1   
    59    20    76 1   
    60    20   108 1   
    61    21    22 2   
    62    21    77 1   
    63    21   108 1   
    64    22    78 1   
    65    22    79 1   
    66    23    80 1   
    67    23    81 1   
    68    23    82 1   
    69    23   108 1   
    70    24    25 2   
    71    25    26 1   
    72    25    34 1   
    73    26    27 1   
    74    26    33 1   
    75    26    83 1   
    76    27    36 1   
    77    27    84 1   
    78    27    85 1   
    79    28    29 1   
    80    28    36 1   
    81    28    86 1   
    82    28   106 1   
    83    29    30 1   
    84    29    87 1   
    85    29    88 1   
    86    30    31 1   
    87    30    89 1   
    88    30    90 1   
    89    31    32 1   
    90    31    91 1   
    91    31    92 1   
    92    32    36 1   
    93    32    93 1   
    94    32    94 1   
    95    33    95 1   
    96    33    96 1   
    97    33    97 1   
    98    34    35 1   
    99    34    98 1   
   100    34    99 1   
   101    35    45 1   
   102    35   100 1   
   103    37   107 1   
   104    38   101 1   
   105    40   102 1   
   106    41   103 1   
   107    42   104 1   
   108    43   108 1   
   109    45   105 1   
   110    57   107 1   
   111    58   107 1   
   112    59   107 1   
@<TRIPOS>SUBSTRUCTURE
     1 SJC         1 TEMP              0 ****  ****    0 ROOT
