@<TRIPOS>MOLECULE
SJD
   45    47     1     0     0
SMALL
No Charge or Current Charge


@<TRIPOS>ATOM
      1 N1          22.2740   -41.5330    10.1320 nu         1 SJD      -0.853100
      2 C4          23.8590   -41.9280     8.2870 ca         1 SJD      -0.010000
      3 C5          22.0840   -43.7990     7.1630 ca         1 SJD      -0.241000
      4 C6          21.7580   -43.1400     8.3600 ca         1 SJD       0.191000
      5 C7          22.6340   -42.1880     8.9380 ca         1 SJD       0.141000
      6 C8          22.0300   -38.9570     9.1740 ca         1 SJD      -0.278500
      7 C10         22.5620   -37.8420     7.0560 ca         1 SJD      -0.041000
      8 C13         26.7030   -37.5160     4.1200 ca         1 SJD      -0.137000
      9 C15         26.6780   -35.8530     2.3420 ca         1 SJD      -0.179000
     10 C17         24.7470   -36.1040     3.8090 ca         1 SJD      -0.137000
     11 C20         20.6770   -38.5890     9.0270 ca         1 SJD      -0.039000
     12 C1          22.8490   -45.0970     4.6790 c3         1 SJD       0.147900
     13 O1          23.6810   -44.1280     5.3410 os         1 SJD      -0.331100
     14 C2          23.3040   -43.5180     6.5190 ca         1 SJD       0.188100
     15 C3          24.1850   -42.5850     7.0870 ca         1 SJD      -0.152000
     16 F1          20.5750   -43.4220     8.9560 f          1 SJD      -0.180000
     17 S1          22.5500   -39.9370    10.5920 sy         1 SJD       1.139600
     18 C9          22.9700   -38.5770     8.1920 ca         1 SJD      -0.033000
     19 N2          23.4570   -37.4430     6.0240 ns         1 SJD      -0.145000
     20 C11         24.7440   -37.8580     5.7000 c          1 SJD       0.616700
     21 C12         25.3970   -37.1430     4.5260 ca         1 SJD      -0.102600
     22 C14         27.3310   -36.8750     3.0400 ca         1 SJD       0.196500
     23 F2          28.5760   -37.2480     2.6710 f          1 SJD      -0.165500
     24 C16         25.3890   -35.4720     2.7300 ca         1 SJD       0.196500
     25 F3          24.7550   -34.4850     2.0600 f          1 SJD      -0.165500
     26 O2          25.3290   -38.7520     6.3030 o          1 SJD      -0.556100
     27 C18         21.2110   -37.4670     6.9330 ca         1 SJD      -0.112000
     28 C19         20.2740   -37.8400     7.9110 ca         1 SJD      -0.099000
     29 O3          24.0020   -39.8520    10.7770 o          1 SJD      -0.527000
     30 O4          21.6070   -39.7580    11.6980 o          1 SJD      -0.527000
     31 H1          21.3620   -41.7560    10.5110 hn         1 SJD       0.492000
     32 H2          24.5700   -41.2250     8.7070 ha         1 SJD       0.145000
     33 H3          21.3780   -44.5160     6.7560 ha         1 SJD       0.135000
     34 H5          27.1680   -35.3600     1.5070 ha         1 SJD       0.156000
     35 H6          23.7470   -35.7690     4.0690 ha         1 SJD       0.148500
     36 H7          19.9380   -38.8790     9.7720 ha         1 SJD       0.139000
     37 H8          23.3370   -45.4540     3.7630 h1         1 SJD       0.043700
     38 H9          22.6680   -45.9640     5.3270 h1         1 SJD       0.043700
     39 H10         21.8840   -44.6570     4.4000 h1         1 SJD       0.043700
     40 H11         25.1300   -42.3710     6.5950 ha         1 SJD       0.140000
     41 H12         24.0130   -38.8530     8.3260 ha         1 SJD       0.168000
     42 H13         23.0840   -36.7270     5.4160 hn         1 SJD       0.156000
     43 H14         20.8810   -36.8930     6.0700 ha         1 SJD       0.112000
     44 H15         19.2310   -37.5520     7.8000 ha         1 SJD       0.121000
     45 H4          27.2390   -38.3060     4.6400 ha         1 SJD       0.148500
@<TRIPOS>BOND
     1     1     5 1   
     2     1    17 1   
     3     1    31 1   
     4     2     5 ar  
     5     2    15 ar  
     6     2    32 1   
     7     3     4 ar  
     8     3    14 ar  
     9     3    33 1   
    10     4     5 ar  
    11     4    16 1   
    12     6    11 ar  
    13     6    17 1   
    14     6    18 ar  
    15     7    18 ar  
    16     7    19 1   
    17     7    27 ar  
    18     8    21 ar  
    19     8    22 ar  
    20     8    45 1   
    21     9    22 ar  
    22     9    24 ar  
    23     9    34 1   
    24    10    21 ar  
    25    10    24 ar  
    26    10    35 1   
    27    11    28 ar  
    28    11    36 1   
    29    12    13 1   
    30    12    37 1   
    31    12    38 1   
    32    12    39 1   
    33    13    14 1   
    34    14    15 ar  
    35    15    40 1   
    36    17    29 2   
    37    17    30 2   
    38    18    41 1   
    39    19    20 1   
    40    19    42 1   
    41    20    21 1   
    42    20    26 2   
    43    22    23 1   
    44    24    25 1   
    45    27    28 ar  
    46    27    43 1   
    47    28    44 1   
@<TRIPOS>SUBSTRUCTURE
     1 SJD         1 TEMP              0 ****  ****    0 ROOT
