@<TRIPOS>MOLECULE
SJD
   45    47     1     0     0
SMALL
abcg2


@<TRIPOS>ATOM
      1 N1          22.1090   -41.5140    10.2390 nu         1 SJD      -0.853100
      2 C4          24.0380   -42.5310     9.1520 ca         1 SJD      -0.010000
      3 C5          22.7470   -42.4820     6.6910 ca         1 SJD      -0.241000
      4 C6          22.1310   -42.0150     7.8360 ca         1 SJD       0.191000
      5 C7          22.7420   -42.0240     9.0810 ca         1 SJD       0.141000
      6 C8          21.8660   -38.9690     9.2830 ca         1 SJD      -0.278500
      7 C10         22.2500   -38.1200     7.0790 ca         1 SJD      -0.041000
      8 C13         25.6300   -38.6790     3.5860 ca         1 SJD      -0.137000
      9 C15         26.1130   -36.8260     2.0970 ca         1 SJD      -0.179000
     10 C17         24.6880   -36.4970     4.0300 ca         1 SJD      -0.137000
     11 C20         20.5570   -38.5140     9.2830 ca         1 SJD      -0.039000
     12 C1          24.1770   -43.3640     4.4500 c3         1 SJD       0.147900
     13 O1          24.7560   -43.4150     5.7400 os         1 SJD      -0.331100
     14 C2          24.0520   -42.9610     6.7840 ca         1 SJD       0.188100
     15 C3          24.6920   -42.9860     8.0270 ca         1 SJD      -0.152000
     16 F1          20.8840   -41.5410     7.7340 f          1 SJD      -0.180000
     17 S1          22.4400   -39.9320    10.6540 sy         1 SJD       1.139600
     18 C9          22.7270   -38.7790     8.2100 ca         1 SJD      -0.033000
     19 N2          23.0300   -37.8560     5.9510 ns         1 SJD      -0.145000
     20 C11         24.2160   -38.4170     5.5970 c          1 SJD       0.616700
     21 C12         24.8370   -37.8400     4.3640 ca         1 SJD      -0.102600
     22 C14         26.2400   -38.1530     2.4660 ca         1 SJD       0.196500
     23 F2          26.9920   -38.9510     1.7010 f          1 SJD      -0.165500
     24 C16         25.3330   -36.0230     2.9040 ca         1 SJD       0.196500
     25 F3          25.2040   -34.7310     2.5880 f          1 SJD      -0.165500
     26 O2          24.7580   -39.3180     6.2060 o          1 SJD      -0.556100
     27 C18         20.9330   -37.6550     7.0680 ca         1 SJD      -0.112000
     28 C19         20.1030   -37.8440     8.1580 ca         1 SJD      -0.099000
     29 O3          23.8840   -39.8100    10.7220 o          1 SJD      -0.527000
     30 O4          21.6240   -39.6470    11.8190 o          1 SJD      -0.527000
     31 H1          21.1220   -41.7330    10.3430 hn         1 SJD       0.492000
     32 H2          24.5350   -42.5620    10.1120 ha         1 SJD       0.145000
     33 H3          22.2020   -42.4460     5.7570 ha         1 SJD       0.135000
     34 H5          26.6080   -36.4340     1.2180 ha         1 SJD       0.156000
     35 H6          24.1160   -35.8090     4.6390 ha         1 SJD       0.148500
     36 H7          19.9020   -38.6730    10.1290 ha         1 SJD       0.139000
     37 H8          24.9200   -43.7620     3.7640 h1         1 SJD       0.043700
     38 H9          23.2730   -43.9750     4.3850 h1         1 SJD       0.043700
     39 H10         23.9360   -42.3400     4.1550 h1         1 SJD       0.043700
     40 H11         25.7010   -43.3690     8.1010 ha         1 SJD       0.140000
     41 H12         23.7450   -39.1300     8.2600 ha         1 SJD       0.168000
     42 H13         22.6020   -37.2370     5.2790 hn         1 SJD       0.156000
     43 H14         20.5560   -37.1360     6.1950 ha         1 SJD       0.112000
     44 H15         19.0900   -37.4680     8.1260 ha         1 SJD       0.121000
     45 H4          25.7620   -39.7210     3.8430 ha         1 SJD       0.148500
@<TRIPOS>BOND
     1     1     5 1   
     2     1    17 1   
     3     1    31 1   
     4     2     5 ar  
     5     2    15 ar  
     6     2    32 1   
     7     3     4 ar  
     8     3    14 ar  
     9     3    33 1   
    10     4     5 ar  
    11     4    16 1   
    12     6    11 ar  
    13     6    17 1   
    14     6    18 ar  
    15     7    18 ar  
    16     7    19 1   
    17     7    27 ar  
    18     8    21 ar  
    19     8    22 ar  
    20     8    45 1   
    21     9    22 ar  
    22     9    24 ar  
    23     9    34 1   
    24    10    21 ar  
    25    10    24 ar  
    26    10    35 1   
    27    11    28 ar  
    28    11    36 1   
    29    12    13 1   
    30    12    37 1   
    31    12    38 1   
    32    12    39 1   
    33    13    14 1   
    34    14    15 ar  
    35    15    40 1   
    36    17    29 2   
    37    17    30 2   
    38    18    41 1   
    39    19    20 1   
    40    19    42 1   
    41    20    21 1   
    42    20    26 2   
    43    22    23 1   
    44    24    25 1   
    45    27    28 ar  
    46    27    43 1   
    47    28    44 1   
@<TRIPOS>SUBSTRUCTURE
     1 SJD         1 TEMP              0 ****  ****    0 ROOT
