@<TRIPOS>MOLECULE
SJG
   67    71     1     0     0
SMALL
bcc


@<TRIPOS>ATOM
      1 C4         109.6780    39.5870    29.8420 c          1 SJG       0.753100
      2 C14        109.2280    43.9740    30.9880 ca         1 SJG      -0.122000
      3 C11        107.5590    43.3940    28.8280 ca         1 SJG      -0.020000
      4 C7         108.7730    41.3150    28.4170 ca         1 SJG       0.072600
      5 C8         107.9780    41.0720    27.3290 ca         1 SJG      -0.143000
      6 C9         106.9670    41.9810    26.9660 ca         1 SJG      -0.120000
      7 C10        106.7460    43.1090    27.7060 ca         1 SJG      -0.104000
      8 C12        108.6040    42.5000    29.1830 ca         1 SJG      -0.020000
      9 C13        109.4410    42.8310    30.2710 ca         1 SJG      -0.091000
     10 C2         110.7090    37.7870    30.9730 c3         1 SJG       0.162400
     11 O3         110.6830    38.7170    29.8820 os         1 SJG      -0.443900
     12 O5         108.7920    39.6560    30.6650 o          1 SJG      -0.570000
     13 N6         109.7900    40.3970    28.7580 ns         1 SJG      -0.487100
     14 C15        108.1770    44.8670    30.6820 ca         1 SJG      -0.055300
     15 C16        107.3770    44.5570    29.6140 ca         1 SJG       0.112100
     16 O17        106.3040    45.3660    29.3180 os         1 SJG      -0.368400
     17 C18        106.4900    46.4540    28.5420 ca         1 SJG       0.666600
     18 C19        105.4040    47.3260    28.3760 cp         1 SJG      -0.290800
     19 C20        105.6470    48.4630    27.6170 ca         1 SJG      -0.029000
     20 C21        106.8920    48.6730    27.0420 ca         1 SJG      -0.294300
     21 C22        107.8730    47.7270    27.2670 ca         1 SJG       0.453200
     22 N23        107.6740    46.6430    28.0110 nb         1 SJG      -0.740000
     23 C24        104.0700    47.1230    28.9810 cp         1 SJG       0.563800
     24 C25        103.4540    45.8800    29.0810 ca         1 SJG      -0.404600
     25 C26        102.1800    45.8790    29.6290 ca         1 SJG       0.477200
     26 N27        101.5620    46.9670    30.0470 nb         1 SJG      -0.772000
     27 C28        102.2380    48.1170    29.9030 ca         1 SJG       0.911900
     28 N29        103.4620    48.2310    29.3840 nb         1 SJG      -0.791000
     29 N30        101.6140    49.2410    30.3040 nu         1 SJG      -0.864900
     30 C31        102.2370    50.5450    30.3560 c6         1 SJG       0.210500
     31 C33        101.1690    51.6310    30.4010 c6         1 SJG      -0.088400
     32 C34        101.8100    53.0090    30.5260 c6         1 SJG      -0.110400
     33 C35        102.7790    53.0530    31.7040 c6         1 SJG       0.146800
     34 N36        103.7810    51.9990    31.6800 n7         1 SJG      -0.788200
     35 C37        103.1830    50.6820    31.5570 c6         1 SJG       0.127800
     36 C38        107.9710    46.1100    31.4930 c3         1 SJG      -0.048800
     37 H2         108.1200    40.1680    26.7500 ha         1 SJG       0.134000
     38 H3         106.3510    41.7710    26.1020 ha         1 SJG       0.134000
     39 H4         105.9500    43.7830    27.4220 ha         1 SJG       0.140000
     40 H5         110.2680    42.1870    30.5350 ha         1 SJG       0.142000
     41 H6         111.9740    36.2030    31.6270 hc         1 SJG       0.047033
     42 H7         111.9010    36.3550    29.8740 hc         1 SJG       0.047033
     43 H8         112.8500    37.5050    30.8280 hc         1 SJG       0.047033
     44 H9         110.7450    38.3290    31.9210 h1         1 SJG       0.050200
     45 H10        109.8000    37.1810    30.9660 h1         1 SJG       0.050200
     46 H11        110.4560    40.1460    28.0420 hn         1 SJG       0.333500
     47 H12        104.8500    49.1800    27.4730 ha         1 SJG       0.155000
     48 H13        107.0930    49.5460    26.4370 ha         1 SJG       0.147000
     49 H14        108.8620    47.8400    26.8390 h4         1 SJG       0.022100
     50 H15        103.9090    44.9640    28.7430 ha         1 SJG       0.163000
     51 H16        101.6350    44.9460    29.7320 h4         1 SJG       0.022100
     52 H17        100.7420    49.1100    30.7920 hn         1 SJG       0.446800
     53 H32        102.8290    50.6720    29.4440 h1         1 SJG       0.071700
     54 H18        100.5110    51.4590    31.2610 hc         1 SJG       0.047700
     55 H19        100.5410    51.5760    29.5080 hc         1 SJG       0.047700
     56 H20        102.3460    53.2520    29.6030 hc         1 SJG       0.045700
     57 H21        101.0370    53.7730    30.6480 hc         1 SJG       0.045700
     58 H22        103.2890    54.0180    31.7430 h1         1 SJG       0.053200
     59 H23        102.2140    52.9610    32.6380 h1         1 SJG       0.053200
     60 H24        104.4110    52.1530    30.9010 hn         1 SJG       0.351800
     61 H26        102.6210    50.4670    32.4740 h1         1 SJG       0.062200
     62 H27        103.9770    49.9360    31.4870 h1         1 SJG       0.062200
     63 H28        106.9250    46.2590    31.7580 hc         1 SJG       0.049367
     64 H29        108.5490    46.0650    32.4150 hc         1 SJG       0.049367
     65 H30        108.2990    46.9980    30.9480 hc         1 SJG       0.049367
     66 H1         109.8810    44.2110    31.8190 ha         1 SJG       0.134000
     67 C1         111.9320    36.9180    30.8060 c3         1 SJG      -0.100100
@<TRIPOS>BOND
     1     1    11 1   
     2     1    12 2   
     3     1    13 1   
     4     2     9 ar  
     5     2    14 ar  
     6     2    66 1   
     7     3     7 ar  
     8     3     8 ar  
     9     3    15 ar  
    10     4     5 ar  
    11     4     8 ar  
    12     4    13 1   
    13     5     6 ar  
    14     5    37 1   
    15     6     7 ar  
    16     6    38 1   
    17     7    39 1   
    18     8     9 ar  
    19     9    40 1   
    20    10    11 1   
    21    10    44 1   
    22    10    45 1   
    23    10    67 1   
    24    13    46 1   
    25    14    15 ar  
    26    14    36 1   
    27    15    16 1   
    28    16    17 1   
    29    17    18 ar  
    30    17    22 ar  
    31    18    19 ar  
    32    18    23 1   
    33    19    20 ar  
    34    19    47 1   
    35    20    21 ar  
    36    20    48 1   
    37    21    22 ar  
    38    21    49 1   
    39    23    24 ar  
    40    23    28 ar  
    41    24    25 ar  
    42    24    50 1   
    43    25    26 ar  
    44    25    51 1   
    45    26    27 ar  
    46    27    28 ar  
    47    27    29 1   
    48    29    30 1   
    49    29    52 1   
    50    30    31 1   
    51    30    35 1   
    52    30    53 1   
    53    31    32 1   
    54    31    54 1   
    55    31    55 1   
    56    32    33 1   
    57    32    56 1   
    58    32    57 1   
    59    33    34 1   
    60    33    58 1   
    61    33    59 1   
    62    34    35 1   
    63    34    60 1   
    64    35    61 1   
    65    35    62 1   
    66    36    63 1   
    67    36    64 1   
    68    36    65 1   
    69    41    67 1   
    70    42    67 1   
    71    43    67 1   
@<TRIPOS>SUBSTRUCTURE
     1 SJG         1 TEMP              0 ****  ****    0 ROOT
