@<TRIPOS>MOLECULE
SJG
   67    71     1     0     0
SMALL
No Charge or Current Charge


@<TRIPOS>ATOM
      1 C4         109.6080    39.9490    30.4600 c          1 SJG       0.637100
      2 C14        108.1270    44.2530    30.7410 ca         1 SJG      -0.104000
      3 C11        107.2760    43.2450    28.2530 ca         1 SJG      -0.020000
      4 C7         108.7600    41.3040    28.4950 ca         1 SJG      -0.020000
      5 C8         108.3600    40.8560    27.2230 ca         1 SJG      -0.125000
      6 C9         107.4160    41.5740    26.4770 ca         1 SJG      -0.102000
      7 C10        106.8680    42.7570    26.9920 ca         1 SJG      -0.086000
      8 C12        108.2350    42.5230    29.0090 ca         1 SJG      -0.020000
      9 C13        108.6670    43.0570    30.2450 ca         1 SJG      -0.073000
     10 C2         110.8460    38.5760    31.9930 c3         1 SJG       0.185600
     11 O3         110.7490    39.2430    30.7230 os         1 SJG      -0.467100
     12 O5         108.6480    40.0410    31.2130 o          1 SJG      -0.521000
     13 N6         109.6900    40.4960    29.1960 ns         1 SJG      -0.161000
     14 C15        107.1530    44.9560    30.0130 ca         1 SJG      -0.055300
     15 C16        106.7420    44.4560    28.7570 ca         1 SJG       0.112100
     16 O17        105.7980    45.1480    28.0300 os         1 SJG      -0.368400
     17 C18        106.1040    46.3190    27.3820 ca         1 SJG       0.601300
     18 C19        105.1520    47.3690    27.4430 cp         1 SJG      -0.225500
     19 C20        105.5010    48.5940    26.8270 ca         1 SJG      -0.011000
     20 C21        106.7370    48.6980    26.1760 ca         1 SJG      -0.211000
     21 C22        107.5970    47.5930    26.1580 ca         1 SJG       0.387900
     22 N23        107.2950    46.4220    26.7530 nb         1 SJG      -0.740000
     23 C24        103.8540    47.2240    28.1630 cp         1 SJG       0.235500
     24 C25        103.0140    46.0940    28.0320 ca         1 SJG      -0.256000
     25 C26        101.8130    46.0720    28.7570 ca         1 SJG       0.148900
     26 N27        101.4590    47.0970    29.5560 nb         1 SJG      -0.246000
     27 C28        102.3110    48.1330    29.6100 ca         1 SJG       0.385900
     28 N29        103.4760    48.2500    28.9470 nb         1 SJG      -0.265000
     29 N30        101.9240    49.1770    30.4400 nu         1 SJG      -0.920100
     30 C31        102.7410    50.3590    30.7920 c6         1 SJG       0.210500
     31 C33        101.8300    51.4350    31.4350 c6         1 SJG      -0.088400
     32 C34        102.6690    52.6460    31.9190 c6         1 SJG      -0.110400
     33 C35        103.7990    52.1990    32.8790 c6         1 SJG       0.146800
     34 N36        104.6690    51.1800    32.2410 n7         1 SJG      -0.843400
     35 C37        103.9020    49.9860    31.7760 c6         1 SJG       0.127800
     36 C38        106.5630    46.2410    30.5890 c3         1 SJG      -0.048800
     37 H2         108.7690    39.9330    26.8190 ha         1 SJG       0.116000
     38 H3         107.1040    41.2120    25.5000 ha         1 SJG       0.116000
     39 H4         106.1370    43.2980    26.3970 ha         1 SJG       0.122000
     40 H5         109.4320    42.5620    30.8350 ha         1 SJG       0.124000
     41 H6         112.3320    37.3430    32.9920 hc         1 SJG       0.047033
     42 H7         112.2920    37.1360    31.2270 hc         1 SJG       0.047033
     43 H8         113.0250    38.5960    31.9390 hc         1 SJG       0.047033
     44 H9         110.7780    39.2950    32.8200 h1         1 SJG       0.050200
     45 H10        110.0450    37.8330    32.1080 h1         1 SJG       0.050200
     46 H11        110.5290    40.2590    28.6840 hn         1 SJG       0.167000
     47 H12        104.8210    49.4440    26.8480 ha         1 SJG       0.137000
     48 H13        107.0310    49.6230    25.6870 ha         1 SJG       0.129000
     49 H14        108.5630    47.6500    25.6580 h4         1 SJG       0.022100
     50 H15        103.2810    45.2640    27.3850 ha         1 SJG       0.145000
     51 H16        101.1270    45.2290    28.6990 h4         1 SJG       0.022100
     52 H17        101.0310    49.0420    30.9150 hn         1 SJG       0.502000
     53 H32        103.1820    50.7950    29.8820 h1         1 SJG       0.071700
     54 H18        101.2850    51.0070    32.2880 hc         1 SJG       0.047700
     55 H19        101.0730    51.7710    30.7120 hc         1 SJG       0.047700
     56 H20        103.1010    53.1690    31.0550 hc         1 SJG       0.045700
     57 H21        102.0180    53.3710    32.4280 hc         1 SJG       0.045700
     58 H22        104.4030    53.0710    33.1720 h1         1 SJG       0.053200
     59 H23        103.3560    51.7810    33.7960 h1         1 SJG       0.053200
     60 H24        105.1250    51.6120    31.4270 hn         1 SJG       0.407000
     61 H26        103.4770    49.4670    32.6480 h1         1 SJG       0.062200
     62 H27        104.5880    49.2800    31.2830 h1         1 SJG       0.062200
     63 H28        105.4690    46.2380    30.5260 hc         1 SJG       0.049367
     64 H29        106.8260    46.3710    31.6450 hc         1 SJG       0.049367
     65 H30        106.9310    47.1210    30.0480 hc         1 SJG       0.049367
     66 H1         108.4700    44.6330    31.7010 ha         1 SJG       0.116000
     67 C1         112.2100    37.8690    32.0380 c3         1 SJG      -0.100100
@<TRIPOS>BOND
     1     1    11 1   
     2     1    12 2   
     3     1    13 1   
     4     2     9 ar  
     5     2    14 ar  
     6     2    66 1   
     7     3     7 ar  
     8     3     8 ar  
     9     3    15 ar  
    10     4     5 ar  
    11     4     8 ar  
    12     4    13 1   
    13     5     6 ar  
    14     5    37 1   
    15     6     7 ar  
    16     6    38 1   
    17     7    39 1   
    18     8     9 ar  
    19     9    40 1   
    20    10    11 1   
    21    10    44 1   
    22    10    45 1   
    23    10    67 1   
    24    13    46 1   
    25    14    15 ar  
    26    14    36 1   
    27    15    16 1   
    28    16    17 1   
    29    17    18 ar  
    30    17    22 ar  
    31    18    19 ar  
    32    18    23 1   
    33    19    20 ar  
    34    19    47 1   
    35    20    21 ar  
    36    20    48 1   
    37    21    22 ar  
    38    21    49 1   
    39    23    24 ar  
    40    23    28 ar  
    41    24    25 ar  
    42    24    50 1   
    43    25    26 ar  
    44    25    51 1   
    45    26    27 ar  
    46    27    28 ar  
    47    27    29 1   
    48    29    30 1   
    49    29    52 1   
    50    30    31 1   
    51    30    35 1   
    52    30    53 1   
    53    31    32 1   
    54    31    54 1   
    55    31    55 1   
    56    32    33 1   
    57    32    56 1   
    58    32    57 1   
    59    33    34 1   
    60    33    58 1   
    61    33    59 1   
    62    34    35 1   
    63    34    60 1   
    64    35    61 1   
    65    35    62 1   
    66    36    63 1   
    67    36    64 1   
    68    36    65 1   
    69    41    67 1   
    70    42    67 1   
    71    43    67 1   
@<TRIPOS>SUBSTRUCTURE
     1 SJG         1 TEMP              0 ****  ****    0 ROOT
