@<TRIPOS>MOLECULE
SJI
   66    69     1     0     0
SMALL
abcg2


@<TRIPOS>ATOM
      1 C32          9.5280    16.9080   -13.4180 c3         1 SJI      -0.112400
      2 N3          15.5650    14.8420    -8.9940 ns         1 SJI      -0.507900
      3 C7          13.9450    18.0670    -9.5520 ca         1 SJI      -0.053000
      4 C6          14.2940    16.7310    -9.8240 ca         1 SJI      -0.169600
      5 C9          12.0880    17.9120   -11.0220 ca         1 SJI      -0.052200
      6 C13         10.6780    17.0210   -12.4830 cc         1 SJI       0.423800
      7 C20         10.2090    21.8630   -12.3590 c6         1 SJI       0.179800
      8 C21         11.0530    20.5880   -12.3750 c6         1 SJI      -0.077700
      9 C8          12.8450    18.6750   -10.1340 ca         1 SJI      -0.121000
     10 C18          8.8070    21.0750   -10.5730 c6         1 SJI       0.180800
     11 C26         11.1440    24.4510    -9.7690 c6         1 SJI      -0.100400
     12 C1          16.5680    12.6650    -8.5050 c3         1 SJI      -0.110100
     13 C2          16.6860    14.1720    -8.3480 c3         1 SJI       0.106000
     14 O5          16.4000    16.9200    -8.7170 o          1 SJI      -0.617100
     15 C10         12.4310    16.5740   -11.3180 ca         1 SJI       0.055400
     16 C11         13.5350    15.9760   -10.7170 ca         1 SJI      -0.027000
     17 N12         11.5330    16.0510   -12.2340 nd         1 SJI      -0.580100
     18 N14         10.9600    18.1720   -11.7800 na         1 SJI      -0.185600
     19 C15         10.2040    19.4260   -11.8410 c6         1 SJI       0.095300
     20 C17          9.5620    19.7560   -10.4930 c6         1 SJI      -0.089400
     21 N19          9.6860    22.1440   -11.0290 n3         1 SJI      -0.742600
     22 C23         11.5950    20.3050   -13.7720 c3         1 SJI      -0.090100
     23 C24          9.0990    23.4740   -10.8930 c3         1 SJI       0.197800
     24 C25          9.6220    24.2710    -9.6940 c6         1 SJI       0.183000
     25 C27         11.6910    25.3560    -8.6640 c6         1 SJI      -0.076400
     26 C28         10.9880    26.7150    -8.6550 c6         1 SJI      -0.079400
     27 C29          9.4720    26.5440    -8.5440 c6         1 SJI      -0.076400
     28 C30          8.9300    25.6410    -9.6530 c6         1 SJI      -0.100400
     29 O31          9.2640    23.5050    -8.5210 oh         1 SJI      -0.667000
     30 H1           9.5130    15.9050   -13.8360 hc         1 SJI       0.059033
     31 H2           8.5810    17.0920   -12.9050 hc         1 SJI       0.059033
     32 H3           9.6090    17.6310   -14.2320 hc         1 SJI       0.059033
     33 H4          14.7610    14.2840    -9.2330 hn         1 SJI       0.314500
     34 H5          14.5600    18.6270    -8.8610 ha         1 SJI       0.136000
     35 H6          10.8320    22.7010   -12.6740 h1         1 SJI       0.031700
     36 H7           9.3950    21.7640   -13.1030 h1         1 SJI       0.031700
     37 H8          11.8900    20.7500   -11.6930 hc         1 SJI       0.072700
     38 H9          12.6000    19.6980    -9.8940 ha         1 SJI       0.127000
     39 H10          8.4190    21.3380    -9.5900 h1         1 SJI       0.041700
     40 H11          7.9410    20.9630   -11.2520 h1         1 SJI       0.041700
     41 H12         11.6150    23.4680    -9.7390 hc         1 SJI       0.051450
     42 H13         11.3830    24.8930   -10.7420 hc         1 SJI       0.051450
     43 H14         17.4070    12.1720    -8.0140 hc         1 SJI       0.041700
     44 H15         15.6450    12.2950    -8.0530 hc         1 SJI       0.041700
     45 H16         16.5730    12.3800    -9.5600 hc         1 SJI       0.041700
     46 H17         17.6120    14.5350    -8.7960 h1         1 SJI       0.051200
     47 H18         16.7160    14.4440    -7.2880 h1         1 SJI       0.051200
     48 H19         13.7960    14.9570   -10.9730 ha         1 SJI       0.125000
     49 H20          9.4020    19.2560   -12.5610 h1         1 SJI       0.058700
     50 H21          8.8810    18.9510   -10.2100 hc         1 SJI       0.061700
     51 H22         10.3290    19.8290    -9.7210 hc         1 SJI       0.061700
     52 H24         12.2390    19.4240   -13.7770 hc         1 SJI       0.040700
     53 H25         10.7790    20.1290   -14.4780 hc         1 SJI       0.040700
     54 H26         12.1810    21.1510   -14.1350 hc         1 SJI       0.040700
     55 H27          9.3160    24.0590   -11.7890 h1         1 SJI       0.039200
     56 H28          8.0060    23.4100   -10.8160 h1         1 SJI       0.039200
     57 H29         11.5630    24.8750    -7.6870 hc         1 SJI       0.040950
     58 H30         12.7680    25.4840    -8.7970 hc         1 SJI       0.040950
     59 H31         11.3630    27.3320    -7.8350 hc         1 SJI       0.041700
     60 H32         11.2210    27.2440    -9.5860 hc         1 SJI       0.041700
     61 H33          8.9740    27.5160    -8.5870 hc         1 SJI       0.040950
     62 H34          9.2260    26.1180    -7.5640 hc         1 SJI       0.040950
     63 H35          9.0830    26.1330   -10.6190 hc         1 SJI       0.051450
     64 H36          7.8540    25.4880    -9.5350 hc         1 SJI       0.051450
     65 H37          9.6340    23.9380    -7.7430 ho         1 SJI       0.441000
     66 C4          15.5020    16.1800    -9.1360 c          1 SJI       0.610700
@<TRIPOS>BOND
     1     1     6 1   
     2     1    30 1   
     3     1    31 1   
     4     1    32 1   
     5     2    13 1   
     6     2    33 1   
     7     2    66 1   
     8     3     4 ar  
     9     3     9 ar  
    10     3    34 1   
    11     4    16 ar  
    12     4    66 1   
    13     5     9 ar  
    14     5    15 ar  
    15     5    18 1   
    16     6    17 2   
    17     6    18 1   
    18     7     8 1   
    19     7    21 1   
    20     7    35 1   
    21     7    36 1   
    22     8    19 1   
    23     8    22 1   
    24     8    37 1   
    25     9    38 1   
    26    10    20 1   
    27    10    21 1   
    28    10    39 1   
    29    10    40 1   
    30    11    24 1   
    31    11    25 1   
    32    11    41 1   
    33    11    42 1   
    34    12    13 1   
    35    12    43 1   
    36    12    44 1   
    37    12    45 1   
    38    13    46 1   
    39    13    47 1   
    40    14    66 2   
    41    15    16 ar  
    42    15    17 1   
    43    16    48 1   
    44    18    19 1   
    45    19    20 1   
    46    19    49 1   
    47    20    50 1   
    48    20    51 1   
    49    21    23 1   
    50    22    52 1   
    51    22    53 1   
    52    22    54 1   
    53    23    24 1   
    54    23    55 1   
    55    23    56 1   
    56    24    28 1   
    57    24    29 1   
    58    25    26 1   
    59    25    57 1   
    60    25    58 1   
    61    26    27 1   
    62    26    59 1   
    63    26    60 1   
    64    27    28 1   
    65    27    61 1   
    66    27    62 1   
    67    28    63 1   
    68    28    64 1   
    69    29    65 1   
@<TRIPOS>SUBSTRUCTURE
     1 SJI         1 TEMP              0 ****  ****    0 ROOT
