@<TRIPOS>MOLECULE
SJI
   66    69     1     0     0
SMALL
No Charge or Current Charge


@<TRIPOS>ATOM
      1 C32          9.1170    16.7100   -12.6480 c3         1 SJI      -0.112400
      2 N3          15.8550    14.5880    -9.4030 ns         1 SJI      -0.507900
      3 C7          14.2520    17.9730    -9.6920 ca         1 SJI      -0.053000
      4 C6          14.4530    16.5710    -9.8180 ca         1 SJI      -0.169600
      5 C9          12.1420    17.7830   -10.8450 ca         1 SJI      -0.052200
      6 C13         10.4210    16.8580   -11.9160 cc         1 SJI       0.423800
      7 C20         10.4640    21.7780   -12.5100 c6         1 SJI       0.179800
      8 C21         11.1810    20.4050   -12.4260 c6         1 SJI      -0.077700
      9 C8          13.0940    18.5920   -10.2050 ca         1 SJI      -0.121000
     10 C18          9.3080    21.4210   -10.3690 c6         1 SJI       0.180800
     11 C26         10.7230    24.4860    -9.0400 c6         1 SJI      -0.100400
     12 C1          16.8600    12.3270    -9.2490 c3         1 SJI      -0.110100
     13 C2          17.0030    13.8210    -8.9210 c3         1 SJI       0.106000
     14 O5          16.5700    16.6140    -8.6870 o          1 SJI      -0.617100
     15 C10         12.3160    16.4320   -10.9760 ca         1 SJI       0.055400
     16 C11         13.4600    15.7940   -10.4750 ca         1 SJI      -0.027000
     17 N12         11.2510    15.8330   -11.6430 nd         1 SJI      -0.580100
     18 N14         10.9370    18.0690   -11.4380 na         1 SJI      -0.185600
     19 C15         10.3270    19.4230   -11.5730 c6         1 SJI       0.095300
     20 C17          9.9690    20.0360   -10.1980 c6         1 SJI      -0.089400
     21 N19         10.1680    22.3440   -11.1650 n3         1 SJI      -0.742600
     22 C23         11.4790    19.8490   -13.8490 c3         1 SJI      -0.090100
     23 C24          9.6250    23.7360   -11.2700 c3         1 SJI       0.197800
     24 C25          9.4610    24.6010    -9.9520 c6         1 SJI       0.183000
     25 C27         10.6720    25.4310    -7.8080 c6         1 SJI      -0.076400
     26 C28         10.4530    26.9010    -8.2370 c6         1 SJI      -0.079400
     27 C29          9.1870    27.0460    -9.1150 c6         1 SJI      -0.076400
     28 C30          9.2480    26.0970   -10.3440 c6         1 SJI      -0.100400
     29 O31          8.3000    24.1670    -9.2240 oh         1 SJI      -0.667000
     30 H1           8.9270    15.6630   -12.9080 hc         1 SJI       0.059033
     31 H2           8.2840    17.0610   -12.0290 hc         1 SJI       0.059033
     32 H3           9.1270    17.2920   -13.5760 hc         1 SJI       0.059033
     33 H4          15.1120    14.0950    -9.8800 hn         1 SJI       0.314500
     34 H5          14.9980    18.5900    -9.1940 ha         1 SJI       0.136000
     35 H6          11.1060    22.4700   -13.0750 h1         1 SJI       0.031700
     36 H7           9.5330    21.6640   -13.0850 h1         1 SJI       0.031700
     37 H8          12.1540    20.5690   -11.9500 hc         1 SJI       0.072700
     38 H9          12.9650    19.6640   -10.0940 ha         1 SJI       0.127000
     39 H10          9.1270    21.8200    -9.3630 h1         1 SJI       0.041700
     40 H11          8.3270    21.2990   -10.8530 h1         1 SJI       0.041700
     41 H12         10.8490    23.4510    -8.6940 hc         1 SJI       0.051450
     42 H13         11.6200    24.7170    -9.6320 hc         1 SJI       0.051450
     43 H14         17.7310    11.7720    -8.8790 hc         1 SJI       0.041700
     44 H15         15.9620    11.9100    -8.7770 hc         1 SJI       0.041700
     45 H16         16.7900    12.1720   -10.3320 hc         1 SJI       0.041700
     46 H17         17.9160    14.2130    -9.3890 h1         1 SJI       0.051200
     47 H18         17.0890    13.9520    -7.8340 h1         1 SJI       0.051200
     48 H19         13.5560    14.7200   -10.6020 ha         1 SJI       0.125000
     49 H20          9.3750    19.2970   -12.1080 h1         1 SJI       0.058700
     50 H21          9.2850    19.3680    -9.6580 hc         1 SJI       0.061700
     51 H22         10.8580    20.1440    -9.5670 hc         1 SJI       0.061700
     52 H24         12.0680    18.9250   -13.8050 hc         1 SJI       0.040700
     53 H25         10.5520    19.6310   -14.3940 hc         1 SJI       0.040700
     54 H26         12.0520    20.5710   -14.4420 hc         1 SJI       0.040700
     55 H27         10.2960    24.3070   -11.9270 h1         1 SJI       0.039200
     56 H28          8.6520    23.7150   -11.7790 h1         1 SJI       0.039200
     57 H29          9.8720    25.1190    -7.1230 hc         1 SJI       0.040950
     58 H30         11.6090    25.3490    -7.2410 hc         1 SJI       0.040950
     59 H31         10.3660    27.5410    -7.3490 hc         1 SJI       0.041700
     60 H32         11.3310    27.2580    -8.7940 hc         1 SJI       0.041700
     61 H33          9.0930    28.0860    -9.4570 hc         1 SJI       0.040950
     62 H34          8.2900    26.8380    -8.5170 hc         1 SJI       0.040950
     63 H35         10.0660    26.4250   -11.0010 hc         1 SJI       0.051450
     64 H36          8.3270    26.2020   -10.9340 hc         1 SJI       0.051450
     65 H37          8.2780    24.7080    -8.4090 ho         1 SJI       0.441000
     66 C4          15.7120    15.9500    -9.2530 c          1 SJI       0.610700
@<TRIPOS>BOND
     1     1     6 1   
     2     1    30 1   
     3     1    31 1   
     4     1    32 1   
     5     2    13 1   
     6     2    33 1   
     7     2    66 1   
     8     3     4 ar  
     9     3     9 ar  
    10     3    34 1   
    11     4    16 ar  
    12     4    66 1   
    13     5     9 ar  
    14     5    15 ar  
    15     5    18 1   
    16     6    17 2   
    17     6    18 1   
    18     7     8 1   
    19     7    21 1   
    20     7    35 1   
    21     7    36 1   
    22     8    19 1   
    23     8    22 1   
    24     8    37 1   
    25     9    38 1   
    26    10    20 1   
    27    10    21 1   
    28    10    39 1   
    29    10    40 1   
    30    11    24 1   
    31    11    25 1   
    32    11    41 1   
    33    11    42 1   
    34    12    13 1   
    35    12    43 1   
    36    12    44 1   
    37    12    45 1   
    38    13    46 1   
    39    13    47 1   
    40    14    66 2   
    41    15    16 ar  
    42    15    17 1   
    43    16    48 1   
    44    18    19 1   
    45    19    20 1   
    46    19    49 1   
    47    20    50 1   
    48    20    51 1   
    49    21    23 1   
    50    22    52 1   
    51    22    53 1   
    52    22    54 1   
    53    23    24 1   
    54    23    55 1   
    55    23    56 1   
    56    24    28 1   
    57    24    29 1   
    58    25    26 1   
    59    25    57 1   
    60    25    58 1   
    61    26    27 1   
    62    26    59 1   
    63    26    60 1   
    64    27    28 1   
    65    27    61 1   
    66    27    62 1   
    67    28    63 1   
    68    28    64 1   
    69    29    65 1   
@<TRIPOS>SUBSTRUCTURE
     1 SJI         1 TEMP              0 ****  ****    0 ROOT
