@<TRIPOS>MOLECULE
SJJ
   38    40     1     0     0
SMALL
bcc


@<TRIPOS>ATOM
      1 C5          -3.6110    -0.9090    -0.3250 ca         1 SJJ      -0.040500
      2 C7          -1.9420     0.5470     0.5910 ca         1 SJJ      -0.040500
      3 C4          -4.5730     0.0560    -0.1160 ca         1 SJJ      -0.202500
      4 C8          -2.9020     1.5230     0.8080 ca         1 SJJ      -0.202500
      5 C19          4.4340     1.8000    -0.7360 ca         1 SJJ      -0.238300
      6 C23          3.7110     0.2150     0.8760 ca         1 SJJ      -0.238300
      7 C20          4.9460     2.5530     0.3080 ca         1 SJJ       0.399700
      8 C22          4.2540     1.0420     1.8480 ca         1 SJJ       0.399700
      9 C11         -0.6380    -3.7760    -0.2550 cc         1 SJJ       0.481300
     10 C6          -2.2720    -0.6770     0.0170 ca         1 SJJ      -0.193500
     11 C18          3.7980     0.5960    -0.4570 ca         1 SJJ      -0.055300
     12 C3          -4.2280     1.2860     0.4520 ca         1 SJJ       0.167100
     13 C9          -1.2780    -1.7180    -0.1910 cc         1 SJJ       0.315900
     14 C13          0.0420    -1.7950    -0.5320 cd         1 SJJ       0.154500
     15 C14          0.9880    -0.7310    -0.9140 c          1 SJJ       0.609600
     16 C1          -4.9340     3.4260     1.1910 c3         1 SJJ       0.123700
     17 C17          3.2760    -0.2650    -1.5790 c3         1 SJJ       0.151300
     18 N21          4.8630     2.1920     1.5840 nb         1 SJJ      -0.666000
     19 N12          0.4200    -3.1240    -0.5560 nd         1 SJJ      -0.685000
     20 N16          2.2290    -1.1690    -1.1880 ns         1 SJJ      -0.563900
     21 O15          0.6690     0.4470    -0.9860 o          1 SJJ      -0.599100
     22 O10         -1.6990    -2.9950    -0.0210 os         1 SJJ      -0.349800
     23 O2          -5.2270     2.1650     0.6180 os         1 SJJ      -0.314900
     24 H5          -3.9090    -1.8480    -0.7730 ha         1 SJJ       0.147000
     25 H4          -5.6010    -0.1350    -0.3940 ha         1 SJJ       0.145500
     26 H7          -0.9240     0.7500     0.8900 ha         1 SJJ       0.147000
     27 H8          -2.5950     2.4560     1.2600 ha         1 SJJ       0.145500
     28 H20          5.4420     3.4950     0.1020 h4         1 SJJ       0.016600
     29 H23          3.2280    -0.7080     1.1670 ha         1 SJJ       0.141000
     30 H22          4.1920     0.7550     2.8930 h4         1 SJJ       0.016600
     31 H11         -0.7710    -4.8430    -0.1700 h5         1 SJJ       0.087100
     32 H171         2.9420     0.3730    -2.4000 h1         1 SJJ       0.061700
     33 H172         4.0960    -0.8670    -1.9710 h1         1 SJJ       0.061700
     34 H16          2.4260    -2.1550    -1.1250 hn         1 SJJ       0.343500
     35 H11C        -5.8750     3.9690     1.2370 h1         1 SJJ       0.044367
     36 H12C        -4.5320     3.3310     2.2020 h1         1 SJJ       0.044367
     37 H13C        -4.2290     3.9950     0.5810 h1         1 SJJ       0.044367
     38 H19          4.5310     2.1560    -1.7540 ha         1 SJJ       0.141000
@<TRIPOS>BOND
     1     1     3 ar  
     2     1    10 ar  
     3     1    24 1   
     4     2     4 ar  
     5     2    10 ar  
     6     2    26 1   
     7     3    12 ar  
     8     3    25 1   
     9     4    12 ar  
    10     4    27 1   
    11     5     7 ar  
    12     5    11 ar  
    13     5    38 1   
    14     6     8 ar  
    15     6    11 ar  
    16     6    29 1   
    17     7    18 ar  
    18     7    28 1   
    19     8    18 ar  
    20     8    30 1   
    21     9    19 2   
    22     9    22 1   
    23     9    31 1   
    24    10    13 1   
    25    11    17 1   
    26    12    23 1   
    27    13    14 2   
    28    13    22 1   
    29    14    15 1   
    30    14    19 1   
    31    15    20 1   
    32    15    21 2   
    33    16    23 1   
    34    16    35 1   
    35    16    36 1   
    36    16    37 1   
    37    17    20 1   
    38    17    32 1   
    39    17    33 1   
    40    20    34 1   
@<TRIPOS>SUBSTRUCTURE
     1 SJJ         1 TEMP              0 ****  ****    0 ROOT
