@<TRIPOS>MOLECULE
SJJ
   38    40     1     0     0
SMALL
No Charge or Current Charge


@<TRIPOS>ATOM
      1 C5          -3.4870    -0.7940    -0.7000 ca         1 SJJ      -0.022500
      2 C7          -2.0300     0.4210     0.8220 ca         1 SJJ      -0.022500
      3 C4          -4.3880     0.2850    -0.6930 ca         1 SJJ      -0.184500
      4 C8          -2.9330     1.4990     0.8290 ca         1 SJJ      -0.184500
      5 C19          3.3260     1.7920     0.0660 ca         1 SJJ      -0.155000
      6 C23          4.9250    -0.0020     0.1750 ca         1 SJJ      -0.155000
      7 C20          4.0090     2.4070     1.1290 ca         1 SJJ       0.334400
      8 C22          5.5500     0.6800     1.2340 ca         1 SJJ       0.334400
      9 C11         -0.6800    -3.8590     0.3340 cc         1 SJJ       0.436900
     10 C6          -2.2960    -0.7260     0.0470 ca         1 SJJ      -0.193500
     11 C18          3.7860     0.5600    -0.4310 ca         1 SJJ      -0.055300
     12 C3          -4.1180     1.4340     0.0660 ca         1 SJJ       0.167100
     13 C9          -1.3790    -1.8660     0.0550 cc         1 SJJ       0.271500
     14 C13         -0.0500    -1.8970    -0.3050 cd         1 SJJ       0.154500
     15 C14          0.7330    -0.7270    -0.8350 c          1 SJJ       0.542600
     16 C1          -4.8590     3.6790     0.7740 c3         1 SJJ       0.146900
     17 C17          3.0730    -0.1460    -1.5750 c3         1 SJJ       0.151300
     18 N21          5.1060     1.8680     1.7100 nb         1 SJJ      -0.666000
     19 N12          0.3950    -3.2070    -0.1030 nd         1 SJJ      -0.685000
     20 N16          2.0460    -1.0650    -1.0830 ns         1 SJJ      -0.496900
     21 O15          0.3050     0.4000    -1.0470 o          1 SJJ      -0.599100
     22 O10         -1.8040    -3.0930     0.4380 os         1 SJJ      -0.261000
     23 O2          -5.0410     2.4590     0.0330 os         1 SJJ      -0.338100
     24 H5          -3.7140    -1.6810    -1.2900 ha         1 SJJ       0.129000
     25 H4          -5.3030     0.2280    -1.2770 ha         1 SJJ       0.127500
     26 H7          -1.1230     0.4790     1.4220 ha         1 SJJ       0.129000
     27 H8          -2.6970     2.3700     1.4330 ha         1 SJJ       0.127500
     28 H20          3.6680     3.3620     1.5280 h4         1 SJJ       0.016600
     29 H23          5.3250    -0.9530    -0.1630 ha         1 SJJ       0.123000
     30 H22          6.4330     0.2630     1.7170 h4         1 SJJ       0.016600
     31 H11         -0.7470    -4.9080     0.6030 h5         1 SJJ       0.087100
     32 H171         2.6140     0.5950    -2.2440 h1         1 SJJ       0.061700
     33 H172         3.8010    -0.7170    -2.1660 h1         1 SJJ       0.061700
     34 H16          2.3010    -2.0250    -0.8770 hn         1 SJJ       0.343500
     35 H11C        -5.7060     4.3560     0.6060 h1         1 SJJ       0.044367
     36 H12C        -4.7960     3.4760     1.8510 h1         1 SJJ       0.044367
     37 H13C        -3.9440     4.1950     0.4580 h1         1 SJJ       0.044367
     38 H19          2.4480     2.2710    -0.3590 ha         1 SJJ       0.123000
@<TRIPOS>BOND
     1     1     3 ar  
     2     1    10 ar  
     3     1    24 1   
     4     2     4 ar  
     5     2    10 ar  
     6     2    26 1   
     7     3    12 ar  
     8     3    25 1   
     9     4    12 ar  
    10     4    27 1   
    11     5     7 ar  
    12     5    11 ar  
    13     5    38 1   
    14     6     8 ar  
    15     6    11 ar  
    16     6    29 1   
    17     7    18 ar  
    18     7    28 1   
    19     8    18 ar  
    20     8    30 1   
    21     9    19 2   
    22     9    22 1   
    23     9    31 1   
    24    10    13 1   
    25    11    17 1   
    26    12    23 1   
    27    13    14 2   
    28    13    22 1   
    29    14    15 1   
    30    14    19 1   
    31    15    20 1   
    32    15    21 2   
    33    16    23 1   
    34    16    35 1   
    35    16    36 1   
    36    16    37 1   
    37    17    20 1   
    38    17    32 1   
    39    17    33 1   
    40    20    34 1   
@<TRIPOS>SUBSTRUCTURE
     1 SJJ         1 TEMP              0 ****  ****    0 ROOT
