@<TRIPOS>MOLECULE
SJK
   27    28     1     0     0
SMALL
abcg2


@<TRIPOS>ATOM
      1 N1          23.7550   -25.9940     4.0050 n          1 SJK      -0.325300
      2 N3          21.5630   -26.6710     8.0890 ns         1 SJK      -0.506900
      3 C4          23.7420   -25.7600     5.3810 c          1 SJK       0.589200
      4 C5          24.0990   -25.4570     1.7080 c5         1 SJK       0.006600
      5 C6          24.6380   -25.2460     3.1140 c5         1 SJK       0.088000
      6 C8          21.3000   -26.7110     9.5100 c3         1 SJK       0.124000
      7 C1          23.0700   -27.0070     3.4340 cc         1 SJK       0.513800
      8 N2          22.3080   -27.8390     4.0670 nd         1 SJK      -0.623300
      9 C2          22.2240   -27.6510     5.4030 cd         1 SJK       0.117600
     10 C3          22.8760   -26.6720     6.0930 cc         1 SJK      -0.332400
     11 S1          23.3300   -27.1080     1.7180 ss         1 SJK      -0.181200
     12 O1          24.4040   -24.8560     5.8530 o          1 SJK      -0.502000
     13 O2          23.8060   -26.4880     8.2670 o          1 SJK      -0.575100
     14 C9          21.4880   -25.3740    10.2110 c3         1 SJK       0.059600
     15 S2          20.5130   -24.0920     9.3510 sh         1 SJK      -0.461800
     16 H1          20.7750   -26.6670     7.4630 hn         1 SJK       0.322500
     17 H2          24.8930   -25.4330     0.9670 h1         1 SJK       0.092200
     18 H3          23.3410   -24.7210     1.4480 h1         1 SJK       0.092200
     19 H4          25.6530   -25.6300     3.2200 h1         1 SJK       0.087200
     20 H5          24.6320   -24.1920     3.3790 h1         1 SJK       0.087200
     21 H6          20.2730   -27.0500     9.6340 h1         1 SJK       0.057700
     22 H7          21.9480   -27.4490     9.9860 h1         1 SJK       0.057700
     23 H8          21.5940   -28.3610     5.9280 h4         1 SJK       0.215000
     24 H9          21.1360   -25.4650    11.2380 h1         1 SJK       0.074700
     25 H10         22.5380   -25.0890    10.2320 h1         1 SJK       0.074700
     26 H11         20.4070   -23.2400    10.3760 hs         1 SJK       0.212800
     27 C7          22.8030   -26.5900     7.5780 c          1 SJK       0.635300
@<TRIPOS>BOND
     1     1     3 1   
     2     1     5 1   
     3     1     7 1   
     4     2     6 1   
     5     2    16 1   
     6     2    27 1   
     7     3    10 1   
     8     3    12 2   
     9     4     5 1   
    10     4    11 1   
    11     4    17 1   
    12     4    18 1   
    13     5    19 1   
    14     5    20 1   
    15     6    14 1   
    16     6    21 1   
    17     6    22 1   
    18     7     8 2   
    19     7    11 1   
    20     8     9 1   
    21     9    10 2   
    22     9    23 1   
    23    10    27 1   
    24    13    27 2   
    25    14    15 1   
    26    14    24 1   
    27    14    25 1   
    28    15    26 1   
@<TRIPOS>SUBSTRUCTURE
     1 SJK         1 TEMP              0 ****  ****    0 ROOT
