@<TRIPOS>MOLECULE
SJK
   27    28     1     0     0
SMALL
No Charge or Current Charge


@<TRIPOS>ATOM
      1 N1          23.8680   -25.9740     3.9670 n          1 SJK      -0.325300
      2 N3          21.8380   -26.8930     8.2350 ns         1 SJK      -0.506900
      3 C4          24.0230   -25.8780     5.3350 c          1 SJK       0.589200
      4 C5          24.1850   -25.4780     1.6660 c5         1 SJK       0.006600
      5 C6          24.9380   -25.5640     3.0330 c5         1 SJK       0.088000
      6 C8          21.6400   -26.8560     9.6900 c3         1 SJK       0.124000
      7 C1          22.8000   -26.5990     3.4210 cc         1 SJK       0.513800
      8 N2          21.7680   -27.1300     4.0540 nd         1 SJK      -0.623300
      9 C2          21.7900   -27.0250     5.4490 cd         1 SJK       0.117600
     10 C3          22.8810   -26.4320     6.0910 cc         1 SJK      -0.332400
     11 S1          22.8450   -26.7740     1.6880 ss         1 SJK      -0.181200
     12 O1          25.0260   -25.3720     5.8170 o          1 SJK      -0.502000
     13 O2          23.8210   -25.8310     8.2230 o          1 SJK      -0.575100
     14 C9          21.2110   -25.4630    10.2010 c3         1 SJK       0.059600
     15 S2          19.6930   -24.7800     9.3700 sh         1 SJK      -0.461800
     16 H1          21.1050   -27.3020     7.6750 hn         1 SJK       0.322500
     17 H2          24.8550   -25.6210     0.8080 h1         1 SJK       0.092200
     18 H3          23.7080   -24.4950     1.5610 h1         1 SJK       0.092200
     19 H4          25.7320   -26.3230     3.0030 h1         1 SJK       0.087200
     20 H5          25.3920   -24.6020     3.3060 h1         1 SJK       0.087200
     21 H6          20.8640   -27.5870     9.9530 h1         1 SJK       0.057700
     22 H7          22.5690   -27.1600    10.1910 h1         1 SJK       0.057700
     23 H8          20.9240   -27.4470     5.9540 h4         1 SJK       0.215000
     24 H9          21.0220   -25.5210    11.2810 h1         1 SJK       0.074700
     25 H10         22.0350   -24.7540    10.0450 h1         1 SJK       0.074700
     26 H11         19.6590   -23.6110    10.0580 hs         1 SJK       0.212800
     27 C7          22.9190   -26.3420     7.5780 c          1 SJK       0.635300
@<TRIPOS>BOND
     1     1     3 1   
     2     1     5 1   
     3     1     7 1   
     4     2     6 1   
     5     2    16 1   
     6     2    27 1   
     7     3    10 1   
     8     3    12 2   
     9     4     5 1   
    10     4    11 1   
    11     4    17 1   
    12     4    18 1   
    13     5    19 1   
    14     5    20 1   
    15     6    14 1   
    16     6    21 1   
    17     6    22 1   
    18     7     8 2   
    19     7    11 1   
    20     8     9 1   
    21     9    10 2   
    22     9    23 1   
    23    10    27 1   
    24    13    27 2   
    25    14    15 1   
    26    14    24 1   
    27    14    25 1   
    28    15    26 1   
@<TRIPOS>SUBSTRUCTURE
     1 SJK         1 TEMP              0 ****  ****    0 ROOT
