@<TRIPOS>MOLECULE
SJL
   57    60     1     0     0
SMALL
No Charge or Current Charge


@<TRIPOS>ATOM
      1 C9         -30.3260    -5.7820    11.3590 cp         1 SJL      -0.149500
      2 C3         -32.7520    -4.1600    17.2530 ca         1 SJL      -0.313800
      3 C4         -32.1740    -4.7500    16.0580 cc         1 SJL      -0.026200
      4 N5         -33.7990    -2.3260    18.3730 nb         1 SJL      -0.311000
      5 N1         -33.3860    -4.3680    19.5620 nb         1 SJL      -0.264000
      6 C2         -32.8430    -4.8940    18.4500 ca         1 SJL       0.208900
      7 C19        -33.6720    -0.6520    16.0990 c3         1 SJL       0.100000
      8 C20        -32.7000     0.3560    16.7610 c3         1 SJL      -0.089400
      9 C21        -31.3330     0.4810    16.0490 c3         1 SJL      -0.079400
     10 C22        -30.4120     1.5280    16.7070 c3         1 SJL       0.149800
     11 C23        -33.2490    -2.8540    17.2610 ca         1 SJL       0.315900
     12 C7         -30.3910    -5.3690    13.7840 ca         1 SJL      -0.128000
     13 C12        -28.5440    -8.1920     8.9650 ca         1 SJL      -0.073000
     14 C13        -28.6010    -7.4010     7.8070 ca         1 SJL      -0.160000
     15 C18        -32.6270    -2.5720    14.8770 c          1 SJL       0.579200
     16 C17        -32.1380    -4.4540    12.3760 ca         1 SJL       0.181000
     17 C14        -29.2190    -6.1390     7.8710 ca         1 SJL       0.362300
     18 C15        -29.3150    -5.2480     6.6480 c3         1 SJL      -0.146400
     19 C16        -31.5240    -5.0260    11.2500 ca         1 SJL      -0.097000
     20 C          -34.9500    -1.2270    20.7970 c3         1 SJL       0.228100
     21 O          -32.4890    -1.8520    13.8960 o          1 SJL      -0.518000
     22 C1         -33.8360    -3.1100    19.4610 ca         1 SJL       0.425900
     23 C10        -29.6900    -6.3840    10.1430 cp         1 SJL       0.409500
     24 C11        -29.1030    -7.6750    10.1440 ca         1 SJL      -0.142000
     25 C5         -32.1910    -4.0150    14.8830 cd         1 SJL      -0.168400
     26 C6         -31.5730    -4.6050    13.6660 ca         1 SJL      -0.035800
     27 C8         -29.7750    -5.9360    12.6560 ca         1 SJL       0.164000
     28 F          -28.6120    -6.6000    12.8370 f          1 SJL      -0.176000
     29 F1         -33.3350    -3.8470    12.2070 f          1 SJL      -0.165000
     30 N2         -29.7540    -5.6470     9.0090 nb         1 SJL      -0.675000
     31 N3         -33.1720    -2.0600    16.0780 n          1 SJL      -0.362300
     32 N4         -29.1200     1.6320    16.0060 n8         1 SJL      -0.992200
     33 H1         -31.8070    -5.7740    16.0640 ha         1 SJL       0.191000
     34 H2         -32.4780    -5.9180    18.5200 h4         1 SJL       0.025100
     35 H3         -33.8970    -0.3110    15.0810 h1         1 SJL       0.072200
     36 H4         -34.6300    -0.6230    16.6360 h1         1 SJL       0.072200
     37 H5         -32.5370     0.0740    17.8070 hc         1 SJL       0.047200
     38 H6         -33.1840     1.3410    16.7750 hc         1 SJL       0.047200
     39 H7         -31.4970     0.7520    14.9990 hc         1 SJL       0.055700
     40 H8         -30.8290    -0.4940    16.0570 hc         1 SJL       0.055700
     41 H9         -30.2220     1.2500    17.7530 h1         1 SJL       0.022700
     42 H10        -30.8990     2.5120    16.6900 h1         1 SJL       0.022700
     43 H11        -29.9110    -5.4960    14.7510 ha         1 SJL       0.135000
     44 H12        -28.0860    -9.1790     8.9470 ha         1 SJL       0.120000
     45 H13        -28.1810    -7.7620     6.8720 ha         1 SJL       0.123000
     46 H14        -30.2890    -4.7490     6.5940 hc         1 SJL       0.052700
     47 H15        -28.5390    -4.4740     6.6700 hc         1 SJL       0.052700
     48 H16        -29.1880    -5.8240     5.7240 hc         1 SJL       0.052700
     49 H17        -31.9990    -4.9010    10.2800 ha         1 SJL       0.152000
     50 H18        -34.4000    -3.2100    21.4190 hn         1 SJL       0.515000
     51 H19        -35.3170    -1.0960    21.8240 h1         1 SJL       0.045367
     52 H20        -34.1830    -0.4640    20.6050 h1         1 SJL       0.045367
     53 H21        -35.7880    -1.0580    20.1070 h1         1 SJL       0.045367
     54 H22        -29.0960    -8.2740    11.0490 ha         1 SJL       0.132000
     55 H23        -28.5180     2.2940    16.5110 hn         1 SJL       0.390000
     56 H24        -28.6210     0.7390    16.0920 hn         1 SJL       0.390000
     57 N          -34.3920    -2.5800    20.6130 nu         1 SJL      -0.910100
@<TRIPOS>BOND
     1     1    19 ar  
     2     1    23 1   
     3     1    27 ar  
     4     2     3 1   
     5     2     6 ar  
     6     2    11 ar  
     7     3    25 2   
     8     3    33 1   
     9     4    11 ar  
    10     4    22 ar  
    11     5     6 ar  
    12     5    22 ar  
    13     6    34 1   
    14     7     8 1   
    15     7    31 1   
    16     7    35 1   
    17     7    36 1   
    18     8     9 1   
    19     8    37 1   
    20     8    38 1   
    21     9    10 1   
    22     9    39 1   
    23     9    40 1   
    24    10    32 1   
    25    10    41 1   
    26    10    42 1   
    27    11    31 1   
    28    12    26 ar  
    29    12    27 ar  
    30    12    43 1   
    31    13    14 ar  
    32    13    24 ar  
    33    13    44 1   
    34    14    17 ar  
    35    14    45 1   
    36    15    21 2   
    37    15    25 1   
    38    15    31 1   
    39    16    19 ar  
    40    16    26 ar  
    41    16    29 1   
    42    17    18 1   
    43    17    30 ar  
    44    18    46 1   
    45    18    47 1   
    46    18    48 1   
    47    19    49 1   
    48    20    51 1   
    49    20    52 1   
    50    20    53 1   
    51    20    57 1   
    52    22    57 1   
    53    23    24 ar  
    54    23    30 ar  
    55    24    54 1   
    56    25    26 1   
    57    27    28 1   
    58    32    55 1   
    59    32    56 1   
    60    50    57 1   
@<TRIPOS>SUBSTRUCTURE
     1 SJL         1 TEMP              0 ****  ****    0 ROOT
