@<TRIPOS>MOLECULE
SJL
   57    60     1     0     0
SMALL
abcg2


@<TRIPOS>ATOM
      1 C9         -30.2020    -5.7260    11.4300 cp         1 SJL      -0.149500
      2 C3         -32.7380    -4.1740    17.2240 ca         1 SJL      -0.313800
      3 C4         -32.1270    -4.7350    16.0790 cc         1 SJL      -0.026200
      4 N5         -33.8300    -2.2990    18.2120 nb         1 SJL      -0.311000
      5 N1         -33.5420    -4.3150    19.4660 nb         1 SJL      -0.264000
      6 C2         -32.9440    -4.8480    18.4330 ca         1 SJL       0.208900
      7 C19        -33.5290    -0.7240    16.0330 c3         1 SJL       0.100000
      8 C20        -32.5990     0.2490    16.7480 c3         1 SJL      -0.089400
      9 C21        -31.1940     0.3440    16.1700 c3         1 SJL      -0.079400
     10 C22        -30.3520     1.3830    16.8970 c3         1 SJL       0.149800
     11 C23        -33.2170    -2.8540    17.1810 ca         1 SJL       0.315900
     12 C7         -30.0910    -5.1050    13.7770 ca         1 SJL      -0.128000
     13 C12        -28.3980    -7.9450     8.9810 ca         1 SJL      -0.073000
     14 C13        -28.7340    -7.2810     7.8170 ca         1 SJL      -0.160000
     15 C18        -32.4360    -2.6170    14.9010 c          1 SJL       0.579200
     16 C17        -32.0440    -4.6320    12.5230 ca         1 SJL       0.181000
     17 C14        -29.5300    -6.1380     7.9010 ca         1 SJL       0.362300
     18 C15        -29.9270    -5.3900     6.6650 c3         1 SJL      -0.146400
     19 C16        -31.4850    -5.1790    11.3930 ca         1 SJL      -0.097000
     20 C          -35.1220    -1.1530    20.3660 c3         1 SJL       0.228100
     21 O          -32.2660    -1.9120    13.9200 o          1 SJL      -0.518000
     22 C1         -33.9740    -3.0420    19.3080 ca         1 SJL       0.425900
     23 C10        -29.6270    -6.3040    10.1950 cp         1 SJL       0.409500
     24 C11        -28.8480    -7.4550    10.1990 ca         1 SJL      -0.142000
     25 C5         -32.0000    -4.0090    14.9460 cd         1 SJL      -0.168400
     26 C6         -31.3730    -4.5700    13.7380 ca         1 SJL      -0.035800
     27 C8         -29.5340    -5.6690    12.6460 ca         1 SJL       0.164000
     28 F          -28.2820    -6.1430    12.7390 f          1 SJL      -0.176000
     29 F1         -33.3010    -4.1740    12.4540 f          1 SJL      -0.165000
     30 N2         -29.9580    -5.6740     9.0670 nb         1 SJL      -0.675000
     31 N3         -33.0520    -2.1110    16.0450 n          1 SJL      -0.362300
     32 N4         -29.0020     1.4330    16.3540 n8         1 SJL      -0.992200
     33 H1         -31.7830    -5.7630    16.1170 ha         1 SJL       0.191000
     34 H2         -32.5960    -5.8720    18.5360 h4         1 SJL       0.025100
     35 H3         -33.6580    -0.4350    14.9940 h1         1 SJL       0.072200
     36 H4         -34.5100    -0.7080    16.5050 h1         1 SJL       0.072200
     37 H5         -32.5460    -0.0110    17.8080 hc         1 SJL       0.047200
     38 H6         -33.0790     1.2310    16.7000 hc         1 SJL       0.047200
     39 H7         -31.2360     0.5960    15.1070 hc         1 SJL       0.055700
     40 H8         -30.6930    -0.6280    16.2430 hc         1 SJL       0.055700
     41 H9         -30.3840     1.1730    17.9760 h1         1 SJL       0.022700
     42 H10        -30.8100     2.3670    16.7650 h1         1 SJL       0.022700
     43 H11        -29.5130    -5.0630    14.6920 ha         1 SJL       0.135000
     44 H12        -27.7960    -8.8440     8.9470 ha         1 SJL       0.120000
     45 H13        -28.3980    -7.6410     6.8530 ha         1 SJL       0.123000
     46 H14        -30.5940    -4.5660     6.9100 hc         1 SJL       0.052700
     47 H15        -29.0520    -4.9840     6.1560 hc         1 SJL       0.052700
     48 H16        -30.4330    -6.0460     5.9560 hc         1 SJL       0.052700
     49 H17        -32.0520    -5.2040    10.4710 ha         1 SJL       0.152000
     50 H18        -34.6940    -3.0690    21.1740 hn         1 SJL       0.515000
     51 H19        -35.5660    -0.9720    21.3400 h1         1 SJL       0.045367
     52 H20        -34.3400    -0.4110    20.1990 h1         1 SJL       0.045367
     53 H21        -35.8900    -1.0130    19.6050 h1         1 SJL       0.045367
     54 H22        -28.6190    -7.9800    11.1150 ha         1 SJL       0.132000
     55 H23        -28.4780     2.1630    16.8200 hn         1 SJL       0.390000
     56 H24        -28.5220     0.5700    16.5800 hn         1 SJL       0.390000
     57 N          -34.5950    -2.4940    20.3540 nu         1 SJL      -0.910100
@<TRIPOS>BOND
     1     1    19 ar  
     2     1    23 1   
     3     1    27 ar  
     4     2     3 1   
     5     2     6 ar  
     6     2    11 ar  
     7     3    25 2   
     8     3    33 1   
     9     4    11 ar  
    10     4    22 ar  
    11     5     6 ar  
    12     5    22 ar  
    13     6    34 1   
    14     7     8 1   
    15     7    31 1   
    16     7    35 1   
    17     7    36 1   
    18     8     9 1   
    19     8    37 1   
    20     8    38 1   
    21     9    10 1   
    22     9    39 1   
    23     9    40 1   
    24    10    32 1   
    25    10    41 1   
    26    10    42 1   
    27    11    31 1   
    28    12    26 ar  
    29    12    27 ar  
    30    12    43 1   
    31    13    14 ar  
    32    13    24 ar  
    33    13    44 1   
    34    14    17 ar  
    35    14    45 1   
    36    15    21 2   
    37    15    25 1   
    38    15    31 1   
    39    16    19 ar  
    40    16    26 ar  
    41    16    29 1   
    42    17    18 1   
    43    17    30 ar  
    44    18    46 1   
    45    18    47 1   
    46    18    48 1   
    47    19    49 1   
    48    20    51 1   
    49    20    52 1   
    50    20    53 1   
    51    20    57 1   
    52    22    57 1   
    53    23    24 ar  
    54    23    30 ar  
    55    24    54 1   
    56    25    26 1   
    57    27    28 1   
    58    32    55 1   
    59    32    56 1   
    60    50    57 1   
@<TRIPOS>SUBSTRUCTURE
     1 SJL         1 TEMP              0 ****  ****    0 ROOT
