@<TRIPOS>MOLECULE
SJM
   65    69     1     0     0
SMALL
No Charge or Current Charge


@<TRIPOS>ATOM
      1 C4         108.5920   -15.9660    51.0140 c          1 SJM       0.643300
      2 C14        107.1630   -20.2670    50.3840 ca         1 SJM      -0.101000
      3 C11        106.4900   -19.5450    53.0220 ca         1 SJM      -0.020000
      4 C7         107.9210   -17.5550    52.8750 ca         1 SJM      -0.034000
      5 C8         107.6120   -17.2500    54.2130 ca         1 SJM      -0.116000
      6 C9         106.7390   -18.0630    54.9470 ca         1 SJM      -0.104000
      7 C10        106.1730   -19.1990    54.3530 ca         1 SJM      -0.083000
      8 C12        107.3780   -18.7250    52.2760 ca         1 SJM      -0.021000
      9 C13        107.7210   -19.1170    50.9620 ca         1 SJM      -0.077000
     10 C3         109.7190   -15.1490    50.5990 cg         1 SJM      -0.201200
     11 C1         111.8820   -13.7180    49.9170 c3         1 SJM      -0.021000
     12 C15        106.2610   -21.0660    51.1060 ca         1 SJM      -0.057300
     13 C16        105.9390   -20.7090    52.4340 ca         1 SJM       0.113100
     14 C18        105.4390   -22.7190    53.6500 ca         1 SJM       0.601300
     15 C19        104.5030   -23.7810    53.5470 cp         1 SJM      -0.225500
     16 C2         110.6870   -14.4890    50.2770 c1         1 SJM      -0.052100
     17 C20        104.9180   -25.0540    54.0030 ca         1 SJM      -0.010000
     18 C21        106.2010   -25.1950    54.5480 ca         1 SJM      -0.211000
     19 C22        107.0410   -24.0760    54.6190 ca         1 SJM       0.387900
     20 C24        103.1530   -23.5940    52.9430 cp         1 SJM       0.235500
     21 C25        102.3050   -22.5050    53.2540 ca         1 SJM      -0.257000
     22 C26        101.0530   -22.4380    52.6250 ca         1 SJM       0.148900
     23 C28        101.5210   -24.3860    51.5260 ca         1 SJM       0.387900
     24 C31        101.8980   -26.4660    50.0890 c6         1 SJM       0.213500
     25 C33        100.9590   -27.4910    49.4030 c6         1 SJM      -0.089400
     26 C34        101.7790   -28.6250    48.7350 c6         1 SJM      -0.110400
     27 C35        102.8290   -28.0540    47.7490 c6         1 SJM       0.146800
     28 C37        102.9770   -25.9660    49.0690 c6         1 SJM       0.129800
     29 C38        105.6490   -22.2980    50.4430 c3         1 SJM      -0.048800
     30 N23        106.6760   -22.8570    54.1750 nb         1 SJM      -0.740000
     31 N27        100.6570   -23.3830    51.7510 nb         1 SJM      -0.246000
     32 N29        102.7340   -24.5430    52.0860 nb         1 SJM      -0.268000
     33 N30        101.0900   -25.3470    50.6210 nu         1 SJM      -0.924100
     34 N36        103.7270   -27.0870    48.4260 n7         1 SJM      -0.844400
     35 N6         108.7860   -16.6600    52.1950 ns         1 SJM      -0.167000
     36 O17        105.0640   -21.4950    53.1530 os         1 SJM      -0.368400
     37 O5         107.5590   -16.0050    50.3550 o          1 SJM      -0.557100
     38 H1         107.4370   -20.5370    49.3660 ha         1 SJM       0.116000
     39 H2         108.0370   -16.3640    54.6810 ha         1 SJM       0.117000
     40 H3         106.4970   -17.8110    55.9780 ha         1 SJM       0.116000
     41 H4         105.4980   -19.8160    54.9410 ha         1 SJM       0.122000
     42 H5         108.4280   -18.5430    50.3710 ha         1 SJM       0.123000
     43 H6         112.7130   -13.9680    50.5870 hc         1 SJM       0.061033
     44 H7         112.1830   -13.9420    48.8870 hc         1 SJM       0.061033
     45 H8         111.6800   -12.6440    49.9960 hc         1 SJM       0.061033
     46 H9         104.2530   -25.9140    53.9430 ha         1 SJM       0.137000
     47 H10        106.5470   -26.1570    54.9140 ha         1 SJM       0.129000
     48 H11        108.0430   -24.1600    55.0390 h4         1 SJM       0.022100
     49 H12        102.6060   -21.7400    53.9640 ha         1 SJM       0.146000
     50 H13        100.3580   -21.6220    52.8220 h4         1 SJM       0.022100
     51 H32        102.4120   -26.9840    50.9140 h1         1 SJM       0.069700
     52 H14        100.3460   -26.9900    48.6410 hc         1 SJM       0.047700
     53 H15        100.2640   -27.9180    50.1390 hc         1 SJM       0.047700
     54 H16        101.1050   -29.3080    48.2010 hc         1 SJM       0.045700
     55 H17        102.2830   -29.2250    49.5060 hc         1 SJM       0.045700
     56 H18        102.3120   -27.5540    46.9150 h1         1 SJM       0.053700
     57 H19        103.4220   -28.8760    47.3220 h1         1 SJM       0.053700
     58 H20        103.6860   -25.2990    49.5820 h1         1 SJM       0.063200
     59 H21        102.4800   -25.3690    48.2890 h1         1 SJM       0.063200
     60 H22        106.0700   -23.2200    50.8600 hc         1 SJM       0.049033
     61 H23        104.5620   -22.3270    50.5860 hc         1 SJM       0.049033
     62 H24        105.8330   -22.3110    49.3620 hc         1 SJM       0.049033
     63 H25        100.1610   -25.1860    50.2300 hn         1 SJM       0.505000
     64 H26        104.2490   -27.5900    49.1550 hn         1 SJM       0.407000
     65 H28        109.6680   -16.4790    52.6560 hn         1 SJM       0.163000
@<TRIPOS>BOND
     1     1    10 1   
     2     1    35 1   
     3     1    37 2   
     4     2     9 ar  
     5     2    12 ar  
     6     2    38 1   
     7     3     7 ar  
     8     3     8 ar  
     9     3    13 ar  
    10     4     5 ar  
    11     4     8 ar  
    12     4    35 1   
    13     5     6 ar  
    14     5    39 1   
    15     6     7 ar  
    16     6    40 1   
    17     7    41 1   
    18     8     9 ar  
    19     9    42 1   
    20    10    16 3   
    21    11    16 1   
    22    11    43 1   
    23    11    44 1   
    24    11    45 1   
    25    12    13 ar  
    26    12    29 1   
    27    13    36 1   
    28    14    15 ar  
    29    14    30 ar  
    30    14    36 1   
    31    15    17 ar  
    32    15    20 1   
    33    17    18 ar  
    34    17    46 1   
    35    18    19 ar  
    36    18    47 1   
    37    19    30 ar  
    38    19    48 1   
    39    20    21 ar  
    40    20    32 ar  
    41    21    22 ar  
    42    21    49 1   
    43    22    31 ar  
    44    22    50 1   
    45    23    31 ar  
    46    23    32 ar  
    47    23    33 1   
    48    24    25 1   
    49    24    28 1   
    50    24    33 1   
    51    24    51 1   
    52    25    26 1   
    53    25    52 1   
    54    25    53 1   
    55    26    27 1   
    56    26    54 1   
    57    26    55 1   
    58    27    34 1   
    59    27    56 1   
    60    27    57 1   
    61    28    34 1   
    62    28    58 1   
    63    28    59 1   
    64    29    60 1   
    65    29    61 1   
    66    29    62 1   
    67    33    63 1   
    68    34    64 1   
    69    35    65 1   
@<TRIPOS>SUBSTRUCTURE
     1 SJM         1 TEMP              0 ****  ****    0 ROOT
