@<TRIPOS>MOLECULE
SJM
   65    69     1     0     0
SMALL
bcc


@<TRIPOS>ATOM
      1 C4         108.7730   -15.6290    51.8470 c          1 SJM       0.710300
      2 C14        108.1360   -19.8160    50.0940 ca         1 SJM      -0.119000
      3 C11        106.7100   -19.5700    52.4820 ca         1 SJM      -0.020000
      4 C7         107.9800   -17.5700    53.0650 ca         1 SJM       0.058600
      5 C8         107.3010   -17.4860    54.2500 ca         1 SJM      -0.134000
      6 C9         106.3180   -18.4380    54.5770 ca         1 SJM      -0.122000
      7 C10        106.0160   -19.4500    53.7090 ca         1 SJM      -0.101000
      8 C12        107.7190   -18.6280    52.1530 ca         1 SJM      -0.021000
      9 C13        108.4320   -18.7880    50.9440 ca         1 SJM      -0.095000
     10 C3         109.8680   -14.6860    51.7550 cg         1 SJM      -0.201200
     11 C1         111.8250   -12.9120    51.5100 c3         1 SJM      -0.021000
     12 C15        107.1210   -20.7550    50.3820 ca         1 SJM      -0.057300
     13 C16        106.4420   -20.6110    51.5630 ca         1 SJM       0.113100
     14 C18        105.6820   -22.6490    52.4490 ca         1 SJM       0.666600
     15 C19        104.6400   -23.5830    52.5570 cp         1 SJM      -0.290800
     16 C2         110.7550   -13.8810    51.6360 c1         1 SJM      -0.052100
     17 C20        104.9720   -24.7990    53.1420 ca         1 SJM      -0.028000
     18 C21        106.2580   -25.0290    53.6080 ca         1 SJM      -0.294300
     19 C22        107.1900   -24.0210    53.4500 ca         1 SJM       0.453200
     20 C24        103.2670   -23.3660    52.0560 cp         1 SJM       0.563800
     21 C25        102.6060   -22.1440    52.1170 ca         1 SJM      -0.405600
     22 C26        101.3050   -22.1340    51.6350 ca         1 SJM       0.477200
     23 C28        101.4160   -24.3310    51.1380 ca         1 SJM       0.913900
     24 C31        101.4360   -26.7220    50.5070 c6         1 SJM       0.213500
     25 C33        100.3750   -27.8130    50.4360 c6         1 SJM      -0.089400
     26 C34        101.0220   -29.1750    50.2080 c6         1 SJM      -0.110400
     27 C35        101.9470   -29.1400    48.9950 c6         1 SJM       0.146800
     28 C37        102.3390   -26.7770    49.2670 c6         1 SJM       0.129800
     29 C38        106.8200   -21.8750    49.4320 c3         1 SJM      -0.048800
     30 N23        106.9050   -22.8580    52.8730 nb         1 SJM      -0.740000
     31 N27        100.6980   -23.1960    51.1410 nb         1 SJM      -0.772000
     32 N29        102.6700   -24.4500    51.5750 nb         1 SJM      -0.794000
     33 N30        100.8030   -25.4310    50.6640 nu         1 SJM      -0.868900
     34 N36        102.9410   -28.0790    49.0440 n7         1 SJM      -0.789200
     35 N6         108.9700   -16.6060    52.7610 ns         1 SJM      -0.493100
     36 O17        105.4080   -21.4730    51.8480 os         1 SJM      -0.368400
     37 O5         107.7780   -15.5380    51.1510 o          1 SJM      -0.557100
     38 H1         108.6920   -19.9210    49.1710 ha         1 SJM       0.134000
     39 H2         107.5150   -16.6760    54.9360 ha         1 SJM       0.135000
     40 H3         105.7910   -18.3560    55.5170 ha         1 SJM       0.134000
     41 H4         105.2440   -20.1620    53.9690 ha         1 SJM       0.140000
     42 H5         109.2290   -18.1020    50.6920 ha         1 SJM       0.141000
     43 H6         112.5940   -13.0790    52.2630 hc         1 SJM       0.061033
     44 H7         112.2900   -12.9790    50.5260 hc         1 SJM       0.061033
     45 H8         111.4410   -11.8990    51.6300 hc         1 SJM       0.061033
     46 H9         104.2120   -25.5620    53.2340 ha         1 SJM       0.155000
     47 H10        106.5290   -25.9630    54.0780 ha         1 SJM       0.147000
     48 H11        108.2100   -24.1480    53.7950 h4         1 SJM       0.022100
     49 H12        103.0480   -21.2500    52.5250 ha         1 SJM       0.164000
     50 H13        100.7280   -21.2150    51.6530 h4         1 SJM       0.022100
     51 H32        102.0630   -26.8980    51.3870 h1         1 SJM       0.069700
     52 H14         99.6870   -27.5980    49.6090 hc         1 SJM       0.047700
     53 H15         99.7770   -27.8150    51.3510 hc         1 SJM       0.047700
     54 H16        100.2520   -29.9380    50.0690 hc         1 SJM       0.045700
     55 H17        101.5930   -29.4660    51.0950 hc         1 SJM       0.045700
     56 H18        101.3460   -28.9970    48.0900 h1         1 SJM       0.053700
     57 H19        102.4620   -30.0960    48.8800 h1         1 SJM       0.053700
     58 H20        103.1300   -26.0300    49.3560 h1         1 SJM       0.063200
     59 H21        101.7450   -26.5110    48.3850 h1         1 SJM       0.063200
     60 H22        107.2000   -22.8270    49.8100 hc         1 SJM       0.049033
     61 H23        105.7500   -21.9960    49.2680 hc         1 SJM       0.049033
     62 H24        107.2890   -21.6980    48.4660 hc         1 SJM       0.049033
     63 H25         99.8880   -25.2920    50.2660 hn         1 SJM       0.449800
     64 H26        103.6020   -28.2730    49.7870 hn         1 SJM       0.351800
     65 H28        109.7760   -16.5430    53.3640 hn         1 SJM       0.329500
@<TRIPOS>BOND
     1     1    10 1   
     2     1    35 1   
     3     1    37 2   
     4     2     9 ar  
     5     2    12 ar  
     6     2    38 1   
     7     3     7 ar  
     8     3     8 ar  
     9     3    13 ar  
    10     4     5 ar  
    11     4     8 ar  
    12     4    35 1   
    13     5     6 ar  
    14     5    39 1   
    15     6     7 ar  
    16     6    40 1   
    17     7    41 1   
    18     8     9 ar  
    19     9    42 1   
    20    10    16 3   
    21    11    16 1   
    22    11    43 1   
    23    11    44 1   
    24    11    45 1   
    25    12    13 ar  
    26    12    29 1   
    27    13    36 1   
    28    14    15 ar  
    29    14    30 ar  
    30    14    36 1   
    31    15    17 ar  
    32    15    20 1   
    33    17    18 ar  
    34    17    46 1   
    35    18    19 ar  
    36    18    47 1   
    37    19    30 ar  
    38    19    48 1   
    39    20    21 ar  
    40    20    32 ar  
    41    21    22 ar  
    42    21    49 1   
    43    22    31 ar  
    44    22    50 1   
    45    23    31 ar  
    46    23    32 ar  
    47    23    33 1   
    48    24    25 1   
    49    24    28 1   
    50    24    33 1   
    51    24    51 1   
    52    25    26 1   
    53    25    52 1   
    54    25    53 1   
    55    26    27 1   
    56    26    54 1   
    57    26    55 1   
    58    27    34 1   
    59    27    56 1   
    60    27    57 1   
    61    28    34 1   
    62    28    58 1   
    63    28    59 1   
    64    29    60 1   
    65    29    61 1   
    66    29    62 1   
    67    33    63 1   
    68    34    64 1   
    69    35    65 1   
@<TRIPOS>SUBSTRUCTURE
     1 SJM         1 TEMP              0 ****  ****    0 ROOT
