@<TRIPOS>MOLECULE
SJN
   22    23     1     0     0
SMALL
No Charge or Current Charge


@<TRIPOS>ATOM
      1 C10          8.5220   -23.4470    37.9470 cc         1 SJN      -0.291400
      2 N12          6.9770   -23.5000    36.0930 na         1 SJN      -0.764900
      3 C13          9.8480   -23.8470    38.4950 c          1 SJN       0.729200
      4 C01          2.8750   -21.1800    35.8950 c3         1 SJN      -0.143400
      5 C02          4.0950   -21.5460    36.7190 ca         1 SJN       0.397300
      6 N03          5.0130   -22.3240    36.1140 nb         1 SJN      -0.760000
      7 C04          6.1150   -22.6860    36.7850 ca         1 SJN       0.602900
      8 C05          6.3360   -22.2820    38.0990 ca         1 SJN      -0.259600
      9 C06          5.3820   -21.4740    38.7500 ca         1 SJN       0.005000
     10 C07          4.2390   -21.1020    38.0380 ca         1 SJN      -0.246000
     11 C08          7.5690   -22.7030    38.7840 c          1 SJN       0.600900
     12 O09          7.7330   -22.4110    39.9630 o          1 SJN      -0.548100
     13 C11          8.2380   -23.8190    36.6390 cd         1 SJN       0.015000
     14 O14         10.6020   -24.4800    37.7710 o          1 SJN      -0.712000
     15 O15         10.1800   -23.5430    39.6290 o          1 SJN      -0.712000
     16 H2           3.1570   -20.8820    34.8780 hc         1 SJN       0.042367
     17 H3           2.1870   -22.0300    35.8200 hc         1 SJN       0.042367
     18 H4           2.3260   -20.3440    36.3430 hc         1 SJN       0.042367
     19 H5           5.5210   -21.1400    39.7780 ha         1 SJN       0.133000
     20 H6           3.4780   -20.4790    38.5000 ha         1 SJN       0.108000
     21 H7           8.9250   -24.3840    36.0050 h4         1 SJN       0.221000
     22 H1           6.6960   -23.7920    35.1620 hn         1 SJN       0.497000
@<TRIPOS>BOND
     1     1     3 1   
     2     1    11 1   
     3     1    13 2   
     4     2     7 1   
     5     2    13 1   
     6     2    22 1   
     7     3    14 1   
     8     3    15 1   
     9     4     5 1   
    10     4    16 1   
    11     4    17 1   
    12     4    18 1   
    13     5     6 ar  
    14     5    10 ar  
    15     6     7 ar  
    16     7     8 ar  
    17     8     9 ar  
    18     8    11 1   
    19     9    10 ar  
    20     9    19 1   
    21    10    20 1   
    22    11    12 2   
    23    13    21 1   
@<TRIPOS>SUBSTRUCTURE
     1 SJN         1 TEMP              0 ****  ****    0 ROOT
