@<TRIPOS>MOLECULE
SJN
   22    23     1     0     0
SMALL
abcg2


@<TRIPOS>ATOM
      1 C10          8.5250   -23.4340    37.9930 cc         1 SJN      -0.291400
      2 N12          7.0750   -23.3070    36.0870 na         1 SJN      -0.764900
      3 C13          9.8910   -23.9070    38.4850 c          1 SJN       0.729200
      4 C01          2.8740   -21.1890    35.8960 c3         1 SJN      -0.143400
      5 C02          4.0900   -21.5690    36.6800 ca         1 SJN       0.397300
      6 N03          5.0360   -22.2500    36.0610 nb         1 SJN      -0.760000
      7 C04          6.1210   -22.5980    36.7530 ca         1 SJN       0.602900
      8 C05          6.3380   -22.2960    38.0990 ca         1 SJN      -0.259600
      9 C06          5.3230   -21.5720    38.7350 ca         1 SJN       0.005000
     10 C07          4.2000   -21.2060    38.0330 ca         1 SJN      -0.246000
     11 C08          7.5600   -22.7180    38.8120 c          1 SJN       0.600900
     12 O09          7.6750   -22.4800    40.0120 o          1 SJN      -0.548100
     13 C11          8.2100   -23.7040    36.6950 cd         1 SJN       0.015000
     14 O14         10.3990   -24.8530    37.8460 o          1 SJN      -0.712000
     15 O15         10.3950   -23.2990    39.4440 o          1 SJN      -0.712000
     16 H2           2.9440   -21.5420    34.8700 hc         1 SJN       0.042367
     17 H3           1.9760   -21.6110    36.3490 hc         1 SJN       0.042367
     18 H4           2.7440   -20.1060    35.8840 hc         1 SJN       0.042367
     19 H5           5.4310   -21.3070    39.7780 ha         1 SJN       0.133000
     20 H6           3.4050   -20.6460    38.5080 ha         1 SJN       0.108000
     21 H7           8.8890   -24.2670    36.0710 h4         1 SJN       0.221000
     22 H1           6.9140   -23.5330    35.1170 hn         1 SJN       0.497000
@<TRIPOS>BOND
     1     1     3 1   
     2     1    11 1   
     3     1    13 2   
     4     2     7 1   
     5     2    13 1   
     6     2    22 1   
     7     3    14 1   
     8     3    15 1   
     9     4     5 1   
    10     4    16 1   
    11     4    17 1   
    12     4    18 1   
    13     5     6 ar  
    14     5    10 ar  
    15     6     7 ar  
    16     7     8 ar  
    17     8     9 ar  
    18     8    11 1   
    19     9    10 ar  
    20     9    19 1   
    21    10    20 1   
    22    11    12 2   
    23    13    21 1   
@<TRIPOS>SUBSTRUCTURE
     1 SJN         1 TEMP              0 ****  ****    0 ROOT
