@<TRIPOS>MOLECULE
SJP
   98   101     1     0     0
SMALL
No Charge or Current Charge


@<TRIPOS>ATOM
      1 C1           0.5550     4.1390    -0.5230 c6         1 SJP       0.405300
      2 C10          1.8110     2.0200    -0.3700 c6         1 SJP       0.189300
      3 C11          0.7060     0.9040    -0.3510 c6         1 SJP       0.177300
      4 C12          1.2120    -0.3850     0.3880 c6         1 SJP       0.134300
      5 C13         -1.7690     0.8310    -0.1660 c5         1 SJP       0.359300
      6 C14         -2.5120     0.3110     1.1050 c5         1 SJP       0.109300
      7 C15         -3.9480     0.2080     0.4920 c5         1 SJP       0.139300
      8 C16         -4.0050     1.5130    -0.3760 c5         1 SJP       0.162300
      9 C17         -4.7780     2.6730     0.3140 c3         1 SJP       0.169600
     10 C18         -4.3750    -2.1950     0.1030 c6         1 SJP       0.402300
     11 C19         -4.1380    -3.3250    -0.9710 c6         1 SJP       0.143500
     12 C2          -0.4150     4.8370    -1.5590 c6         1 SJP       0.142500
     13 C20         -4.6110    -4.6840    -0.3900 c6         1 SJP      -0.120400
     14 C21         -6.0600    -4.5900     0.1650 c6         1 SJP      -0.112400
     15 C22         -6.2030    -3.3910     1.1420 c6         1 SJP       0.177300
     16 C23         -7.6800    -3.1910     1.6210 c3         1 SJP       0.156800
     17 C24          5.7040    -4.0050     1.3960 c3         1 SJP       0.176300
     18 C26          3.8060    -3.1070    -0.0580 c          1 SJP       0.574100
     19 C27          6.1040    -4.9240     2.5900 c3         1 SJP       0.127800
     20 C28          4.2410    -4.2360     0.9220 c3         1 SJP       0.065300
     21 C3           0.3710     5.7860    -2.4990 c6         1 SJP      -0.111400
     22 C4           1.2580     6.7520    -1.6790 c6         1 SJP      -0.100400
     23 C5           2.1760     5.9600    -0.7120 c6         1 SJP       0.168300
     24 C6           3.0290     6.9150     0.1900 c3         1 SJP       0.155800
     25 C7           2.5410    -0.9130    -0.2280 c6         1 SJP       0.071700
     26 C8           3.6210     0.1930    -0.1810 c6         1 SJP      -0.098400
     27 C9           3.1530     1.4520    -0.9460 c6         1 SJP       0.163500
     28 F99          6.5640    -4.1890     0.3580 f          1 SJP      -0.248000
     29 N19         -7.8800    -2.0590     2.5620 n8         1 SJP      -0.995200
     30 N2          -1.2130     3.8810    -2.3840 n8         1 SJP      -1.006200
     31 N23         -4.8310    -3.0660    -2.2710 n8         1 SJP      -0.970200
     32 N6           3.9360     6.2280     1.1420 n8         1 SJP      -1.007200
     33 N7           3.0190    -2.1110     0.4900 ns         1 SJP      -0.501900
     34 N9           4.2290     2.4700    -0.9400 n8         1 SJP      -1.016200
     35 O1           1.4140     3.1690    -1.1730 os         1 SJP      -0.489000
     36 O11         -0.5170     1.4190     0.2390 os         1 SJP      -0.460000
     37 O12          0.2310    -1.4400     0.3680 oh         1 SJP      -0.704000
     38 O14         -2.0030    -0.9060     1.6860 oh         1 SJP      -0.694000
     39 O16         -2.6170     1.9130    -0.5840 os         1 SJP      -0.468000
     40 O17         -5.0000     3.7730    -0.5880 oh         1 SJP      -0.704000
     41 O18         -4.0340    -0.9050    -0.4430 os         1 SJP      -0.390000
     42 O19          4.0830    -5.5580     0.3330 oh         1 SJP      -0.642000
     43 O2           4.0870    -3.1200    -1.2490 o          1 SJP      -0.580100
     44 O22         -5.7680    -2.1720     0.4890 os         1 SJP      -0.509000
     45 O5           1.3740     5.1190     0.1570 os         1 SJP      -0.485000
     46 H1          -0.0760     3.6450     0.2280 h2         1 SJP       0.083700
     47 H2           1.9970     2.3540     0.6620 h1         1 SJP       0.062700
     48 H3           0.5010     0.6420    -1.4000 h1         1 SJP       0.086700
     49 H4           1.4150    -0.1080     1.4330 h1         1 SJP       0.033700
     50 H5          -1.6590     0.0700    -0.9500 h2         1 SJP       0.070700
     51 H6          -2.4990     1.1030     1.8670 h1         1 SJP       0.074700
     52 H7          -4.7510     0.1510     1.2390 h1         1 SJP       0.063700
     53 H8          -4.4740     1.3100    -1.3490 h1         1 SJP       0.083700
     54 H9          -5.7430     2.2850     0.6670 h1         1 SJP       0.025700
     55 H10         -4.2120     3.0040     1.1950 h1         1 SJP       0.025700
     56 H11         -3.7580    -2.4100     0.9850 h2         1 SJP       0.029700
     57 H12         -3.0570    -3.3810    -1.1740 h1         1 SJP       0.082700
     58 H13         -1.1320     5.4430    -0.9840 h1         1 SJP       0.066700
     59 H14         -4.5430    -5.4740    -1.1500 hc         1 SJP       0.049200
     60 H15         -3.9320    -4.9820     0.4220 hc         1 SJP       0.049200
     61 H16         -6.7740    -4.4840    -0.6640 hc         1 SJP       0.049200
     62 H17         -6.3210    -5.5240     0.6800 hc         1 SJP       0.049200
     63 H18         -5.5730    -3.5640     2.0280 h1         1 SJP       0.049700
     64 H19         -8.3090    -3.0180     0.7360 h1         1 SJP       0.035200
     65 H20         -8.0280    -4.1130     2.1060 h1         1 SJP       0.035200
     66 H21          5.7960    -2.9610     1.7230 h1         1 SJP       0.044700
     67 H22          5.3680    -4.7990     3.3970 h1         1 SJP       0.049700
     68 H23          6.0660    -5.9740     2.2640 h1         1 SJP       0.049700
     69 H24          3.5910    -4.1540     1.8030 h1         1 SJP       0.072700
     70 H25          1.0040     5.2010    -3.1810 hc         1 SJP       0.049200
     71 H26         -0.3230     6.3600    -3.1280 hc         1 SJP       0.049200
     72 H27          1.8670     7.3650    -2.3570 hc         1 SJP       0.047200
     73 H28          0.6250     7.4460    -1.1080 hc         1 SJP       0.047200
     74 H29          2.8630     5.3290    -1.2950 h1         1 SJP       0.054700
     75 H30          3.6310     7.5730    -0.4520 h1         1 SJP       0.032700
     76 H31          2.3400     7.5470     0.7670 h1         1 SJP       0.032700
     77 H32          2.3590    -1.1820    -1.2810 h1         1 SJP       0.104700
     78 H33          3.8520     0.4500     0.8620 hc         1 SJP       0.057700
     79 H34          4.5520    -0.1840    -0.6250 hc         1 SJP       0.057700
     80 H35          2.9760     1.1840    -1.9990 h1         1 SJP       0.034700
     81 H36         -7.5140    -1.2130     2.1080 hn         1 SJP       0.398000
     82 H37         -8.8850    -1.8720     2.6530 hn         1 SJP       0.398000
     83 H39         -0.5540     3.2070    -2.7880 hn         1 SJP       0.410000
     84 H40         -1.7730     3.2920    -1.7470 hn         1 SJP       0.410000
     85 H42         -5.8330    -2.9930    -2.0660 hn         1 SJP       0.394000
     86 H43         -4.5920    -2.1100    -2.5600 hn         1 SJP       0.394000
     87 H45          7.4830    -3.7040     3.5480 hn         1 SJP       0.395500
     88 H46          7.6240    -5.2590     3.9590 hn         1 SJP       0.395500
     89 H48          4.2700     6.9080     1.8370 hn         1 SJP       0.403500
     90 H49          3.3690     5.5740     1.6940 hn         1 SJP       0.403500
     91 H51          2.8400    -2.1730     1.4880 hn         1 SJP       0.308500
     92 H52          4.8320     2.3220    -1.7570 hn         1 SJP       0.415500
     93 H53          3.7830     3.3760    -1.1330 hn         1 SJP       0.415500
     94 H55          0.7310    -2.2820     0.2400 ho         1 SJP       0.506000
     95 H56         -1.1310    -1.0880     1.2280 ho         1 SJP       0.506000
     96 H57         -5.4420     4.4860    -0.0700 ho         1 SJP       0.501000
     97 H58          4.5350    -5.5360    -0.5430 ho         1 SJP       0.483000
     98 N3           7.4610    -4.6500     3.1470 n8         1 SJP      -0.989200
@<TRIPOS>BOND
     1     1    12 1   
     2     1    35 1   
     3     1    45 1   
     4     1    46 1   
     5     2     3 1   
     6     2    27 1   
     7     2    35 1   
     8     2    47 1   
     9     3     4 1   
    10     3    36 1   
    11     3    48 1   
    12     4    25 1   
    13     4    37 1   
    14     4    49 1   
    15     5     6 1   
    16     5    36 1   
    17     5    39 1   
    18     5    50 1   
    19     6     7 1   
    20     6    38 1   
    21     6    51 1   
    22     7     8 1   
    23     7    41 1   
    24     7    52 1   
    25     8     9 1   
    26     8    39 1   
    27     8    53 1   
    28     9    40 1   
    29     9    54 1   
    30     9    55 1   
    31    10    11 1   
    32    10    41 1   
    33    10    44 1   
    34    10    56 1   
    35    11    13 1   
    36    11    31 1   
    37    11    57 1   
    38    12    21 1   
    39    12    30 1   
    40    12    58 1   
    41    13    14 1   
    42    13    59 1   
    43    13    60 1   
    44    14    15 1   
    45    14    61 1   
    46    14    62 1   
    47    15    16 1   
    48    15    44 1   
    49    15    63 1   
    50    16    29 1   
    51    16    64 1   
    52    16    65 1   
    53    17    19 1   
    54    17    20 1   
    55    17    28 1   
    56    17    66 1   
    57    18    20 1   
    58    18    33 1   
    59    18    43 2   
    60    19    67 1   
    61    19    68 1   
    62    19    98 1   
    63    20    42 1   
    64    20    69 1   
    65    21    22 1   
    66    21    70 1   
    67    21    71 1   
    68    22    23 1   
    69    22    72 1   
    70    22    73 1   
    71    23    24 1   
    72    23    45 1   
    73    23    74 1   
    74    24    32 1   
    75    24    75 1   
    76    24    76 1   
    77    25    26 1   
    78    25    33 1   
    79    25    77 1   
    80    26    27 1   
    81    26    78 1   
    82    26    79 1   
    83    27    34 1   
    84    27    80 1   
    85    29    81 1   
    86    29    82 1   
    87    30    83 1   
    88    30    84 1   
    89    31    85 1   
    90    31    86 1   
    91    32    89 1   
    92    32    90 1   
    93    33    91 1   
    94    34    92 1   
    95    34    93 1   
    96    37    94 1   
    97    38    95 1   
    98    40    96 1   
    99    42    97 1   
   100    87    98 1   
   101    88    98 1   
@<TRIPOS>SUBSTRUCTURE
     1 SJP         1 TEMP              0 ****  ****    0 ROOT
