@<TRIPOS>MOLECULE
SJP
   98   101     1     0     0
SMALL
bcc


@<TRIPOS>ATOM
      1 C1           0.1710     3.1350     1.0680 c6         1 SJP       0.358900
      2 C10          1.7240     1.3280     0.5760 c6         1 SJP       0.166100
      3 C11          1.2120    -0.0210     0.0470 c6         1 SJP       0.154100
      4 C12          2.1860    -1.1600     0.3330 c6         1 SJP       0.111100
      5 C13         -1.0060    -0.9850     0.0630 c5         1 SJP       0.312900
      6 C14         -2.2880    -0.9880     0.9130 c5         1 SJP       0.086100
      7 C15         -3.4080    -0.8680    -0.1500 c5         1 SJP       0.116100
      8 C16         -2.6540    -0.8770    -1.4830 c5         1 SJP       0.139100
      9 C17         -3.3100    -0.0170    -2.5330 c3         1 SJP       0.146400
     10 C18         -5.4750    -1.6730     0.6100 c6         1 SJP       0.355900
     11 C19         -6.2310    -2.9670     0.8830 c6         1 SJP       0.143500
     12 C2          -1.2160     3.5160     0.5410 c6         1 SJP       0.142500
     13 C20         -7.5020    -2.5900     1.6590 c6         1 SJP      -0.120400
     14 C21         -8.3100    -1.5240     0.9240 c6         1 SJP      -0.112400
     15 C22         -7.4230    -0.3380     0.5730 c6         1 SJP       0.154100
     16 C23         -8.1180     0.6890    -0.2980 c3         1 SJP       0.156800
     17 C24          7.2950    -3.0380     0.0560 c3         1 SJP       0.157600
     18 C26          5.0560    -2.6450    -0.9880 c          1 SJP       0.641100
     19 C27          8.4040    -4.0170     0.3730 c3         1 SJP       0.127800
     20 C28          6.0490    -3.7110    -0.5140 c3         1 SJP       0.042100
     21 C3          -1.0830     4.4310    -0.6740 c6         1 SJP      -0.111400
     22 C4          -0.2470     5.6500    -0.3100 c6         1 SJP      -0.100400
     23 C5           1.0830     5.2210     0.2870 c6         1 SJP       0.145100
     24 C6           1.8650     6.3910     0.8510 c3         1 SJP       0.155800
     25 C7           3.5610    -0.8270    -0.2440 c6         1 SJP       0.071700
     26 C8           4.0770     0.4580     0.3740 c6         1 SJP      -0.098400
     27 C9           3.1470     1.6340     0.0980 c6         1 SJP       0.163500
     28 F99          7.7520    -2.0970    -0.8690 f          1 SJP      -0.229300
     29 N19         -7.2690     1.8470    -0.5230 n8         1 SJP      -0.884800
     30 N2          -2.0380     2.3390     0.3480 n8         1 SJP      -0.895800
     31 N23         -6.4610    -3.6980    -0.3530 n8         1 SJP      -0.859800
     32 N6           3.1820     5.9840     1.3100 n8         1 SJP      -0.896800
     33 N7           4.4730    -1.9290    -0.0190 ns         1 SJP      -0.568900
     34 N9           3.6930     2.7820     0.7990 n8         1 SJP      -0.905800
     35 O1           0.8240     2.3290     0.1290 os         1 SJP      -0.442600
     36 O11         -0.0290    -0.2380     0.6930 os         1 SJP      -0.413600
     37 O12          1.6690    -2.3380    -0.2330 oh         1 SJP      -0.581800
     38 O14         -2.4540    -2.1480     1.6780 oh         1 SJP      -0.571800
     39 O16         -1.3660    -0.3910    -1.1670 os         1 SJP      -0.421600
     40 O17         -2.6200    -0.1560    -3.7490 oh         1 SJP      -0.581800
     41 O18         -4.3350    -1.9180    -0.1310 os         1 SJP      -0.343600
     42 O19          6.3410    -4.5830    -1.5620 oh         1 SJP      -0.579800
     43 O2           4.8560    -2.4900    -2.1830 o          1 SJP      -0.580100
     44 O22         -6.2760    -0.7860    -0.1350 os         1 SJP      -0.462600
     45 O5           0.9020     4.2960     1.3590 os         1 SJP      -0.438600
     46 H1           0.0720     2.6020     2.0210 h2         1 SJP       0.083700
     47 H2           1.7400     1.2880     1.6750 h1         1 SJP       0.062700
     48 H3           1.0820     0.0620    -1.0410 h1         1 SJP       0.086700
     49 H4           2.2860    -1.2630     1.4250 h1         1 SJP       0.033700
     50 H5          -0.6850    -2.0200    -0.1170 h2         1 SJP       0.070700
     51 H6          -2.2880    -0.0850     1.5340 h1         1 SJP       0.074700
     52 H7          -3.9110     0.0980    -0.0310 h1         1 SJP       0.063700
     53 H8          -2.5930    -1.9150    -1.8450 h1         1 SJP       0.083700
     54 H9          -4.3570    -0.3380    -2.6120 h1         1 SJP       0.025700
     55 H10         -3.3220     1.0260    -2.1850 h1         1 SJP       0.025700
     56 H11         -5.2280    -1.2070     1.5810 h2         1 SJP       0.029700
     57 H12         -5.6010    -3.5880     1.5280 h1         1 SJP       0.082700
     58 H13         -1.6750     4.1040     1.3440 h1         1 SJP       0.066700
     59 H14         -8.1060    -3.4840     1.8310 hc         1 SJP       0.049200
     60 H15         -7.2200    -2.2120     2.6470 hc         1 SJP       0.049200
     61 H16         -8.7510    -1.9360     0.0100 hc         1 SJP       0.049200
     62 H17         -9.1430    -1.1850     1.5440 hc         1 SJP       0.049200
     63 H18         -7.1010     0.1560     1.5040 h1         1 SJP       0.049700
     64 H19         -8.4560     0.1930    -1.2210 h1         1 SJP       0.035200
     65 H20         -9.0190     1.0110     0.2280 h1         1 SJP       0.035200
     66 H21          7.0180    -2.4900     0.9640 h1         1 SJP       0.044700
     67 H22          7.9660    -4.8410     0.9540 h1         1 SJP       0.049700
     68 H23          8.7680    -4.4560    -0.5570 h1         1 SJP       0.049700
     69 H24          5.5920    -4.2850     0.3010 h1         1 SJP       0.072700
     70 H25         -0.6240     3.8870    -1.5050 hc         1 SJP       0.049200
     71 H26         -2.0780     4.7370    -1.0080 hc         1 SJP       0.049200
     72 H27         -0.0590     6.2730    -1.1870 hc         1 SJP       0.047200
     73 H28         -0.7920     6.2690     0.4110 hc         1 SJP       0.047200
     74 H29          1.6870     4.7540    -0.5050 h1         1 SJP       0.054700
     75 H30          1.9910     7.1200     0.0470 h1         1 SJP       0.032700
     76 H31          1.2540     6.8830     1.6230 h1         1 SJP       0.032700
     77 H32          3.4700    -0.7020    -1.3250 h1         1 SJP       0.104700
     78 H33          4.1890     0.3370     1.4570 hc         1 SJP       0.057700
     79 H34          5.0690     0.6830    -0.0250 hc         1 SJP       0.057700
     80 H35          3.0990     1.7760    -0.9950 h1         1 SJP       0.034700
     81 H36         -6.4740     1.5740    -1.0870 hn         1 SJP       0.342800
     82 H37         -7.7720     2.5310    -1.0730 hn         1 SJP       0.342800
     83 H39         -2.9320     2.6230    -0.0350 hn         1 SJP       0.354800
     84 H40         -1.6120     1.7240    -0.3320 hn         1 SJP       0.354800
     85 H42         -7.0380    -4.5060    -0.1550 hn         1 SJP       0.338800
     86 H43         -6.9950    -3.1320    -1.0020 hn         1 SJP       0.338800
     87 H45          9.2500    -3.1400     1.9970 hn         1 SJP       0.340300
     88 H46         10.2940    -3.9780     1.0960 hn         1 SJP       0.340300
     89 H48          3.7160     6.8030     1.5690 hn         1 SJP       0.348300
     90 H49          3.0940     5.4340     2.1540 hn         1 SJP       0.348300
     91 H51          4.7110    -2.1390     0.9400 hn         1 SJP       0.308500
     92 H52          4.6420     2.9360     0.4810 hn         1 SJP       0.360300
     93 H53          3.1990     3.6360     0.5810 hn         1 SJP       0.360300
     94 H55          2.1910    -3.0810     0.0850 ho         1 SJP       0.407000
     95 H56         -1.8940    -2.0750     2.4570 ho         1 SJP       0.407000
     96 H57         -3.0530     0.3980    -4.4050 ho         1 SJP       0.402000
     97 H58          6.2030    -4.0990    -2.3880 ho         1 SJP       0.444000
     98 N3           9.5060    -3.3470     1.0390 n8         1 SJP      -0.878800
@<TRIPOS>BOND
     1     1    12 1   
     2     1    35 1   
     3     1    45 1   
     4     1    46 1   
     5     2     3 1   
     6     2    27 1   
     7     2    35 1   
     8     2    47 1   
     9     3     4 1   
    10     3    36 1   
    11     3    48 1   
    12     4    25 1   
    13     4    37 1   
    14     4    49 1   
    15     5     6 1   
    16     5    36 1   
    17     5    39 1   
    18     5    50 1   
    19     6     7 1   
    20     6    38 1   
    21     6    51 1   
    22     7     8 1   
    23     7    41 1   
    24     7    52 1   
    25     8     9 1   
    26     8    39 1   
    27     8    53 1   
    28     9    40 1   
    29     9    54 1   
    30     9    55 1   
    31    10    11 1   
    32    10    41 1   
    33    10    44 1   
    34    10    56 1   
    35    11    13 1   
    36    11    31 1   
    37    11    57 1   
    38    12    21 1   
    39    12    30 1   
    40    12    58 1   
    41    13    14 1   
    42    13    59 1   
    43    13    60 1   
    44    14    15 1   
    45    14    61 1   
    46    14    62 1   
    47    15    16 1   
    48    15    44 1   
    49    15    63 1   
    50    16    29 1   
    51    16    64 1   
    52    16    65 1   
    53    17    19 1   
    54    17    20 1   
    55    17    28 1   
    56    17    66 1   
    57    18    20 1   
    58    18    33 1   
    59    18    43 2   
    60    19    67 1   
    61    19    68 1   
    62    19    98 1   
    63    20    42 1   
    64    20    69 1   
    65    21    22 1   
    66    21    70 1   
    67    21    71 1   
    68    22    23 1   
    69    22    72 1   
    70    22    73 1   
    71    23    24 1   
    72    23    45 1   
    73    23    74 1   
    74    24    32 1   
    75    24    75 1   
    76    24    76 1   
    77    25    26 1   
    78    25    33 1   
    79    25    77 1   
    80    26    27 1   
    81    26    78 1   
    82    26    79 1   
    83    27    34 1   
    84    27    80 1   
    85    29    81 1   
    86    29    82 1   
    87    30    83 1   
    88    30    84 1   
    89    31    85 1   
    90    31    86 1   
    91    32    89 1   
    92    32    90 1   
    93    33    91 1   
    94    34    92 1   
    95    34    93 1   
    96    37    94 1   
    97    38    95 1   
    98    40    96 1   
    99    42    97 1   
   100    87    98 1   
   101    88    98 1   
@<TRIPOS>SUBSTRUCTURE
     1 SJP         1 TEMP              0 ****  ****    0 ROOT
