@<TRIPOS>MOLECULE
SJQ
   43    45     1     0     0
SMALL
abcg2


@<TRIPOS>ATOM
      1 N          139.3210    96.2890   144.8070 nh         1 SJQ      -0.667400
      2 CA         138.8180    97.4150   144.0600 c6         1 SJQ       0.123800
      3 C          137.3400    97.3620   143.7100 c          1 SJQ       0.548000
      4 O          136.7870    98.3800   143.3180 o          1 SJQ      -0.556000
      5 CAB        133.2290    97.0840   140.5890 c6         1 SJQ       0.180000
      6 CAC        132.7040    96.2780   141.7530 c6         1 SJQ      -0.127400
      7 CAD        133.5590    95.0310   141.9820 c6         1 SJQ      -0.066400
      8 CAF        134.6930    97.4300   140.7090 c6         1 SJQ      -0.127400
      9 CAG        135.5370    96.1780   140.9460 c6         1 SJQ      -0.066400
     10 CAH        135.0480    95.3540   142.1390 c6         1 SJQ      -0.078700
     11 CAK        137.3780    94.9580   144.2920 c6         1 SJQ       0.072000
     12 CAL        138.8880    95.0410   144.2040 c6         1 SJQ       0.194800
     13 CAP        139.5770    96.3220   146.1550 cc         1 SJQ       0.107400
     14 CAQ        140.6100    95.4360   146.6290 cc         1 SJQ       0.332500
     15 CAT        138.9960    97.1170   147.1050 cd         1 SJQ      -0.081200
     16 CAV        139.4510    97.1130   148.4800 c          1 SJQ       0.553200
     17 FAE        132.4860    98.2290   140.4380 f          1 SJQ      -0.126000
     18 NAJ        136.7320    96.1630   143.7870 n          1 SJQ      -0.407800
     19 NAR        141.0200    95.3930   147.8460 nd         1 SJQ      -0.396300
     20 NAS        140.4620    96.2160   148.7160 ns         1 SJQ      -0.230900
     21 OAW        138.9910    97.8040   149.3750 o          1 SJQ      -0.518000
     22 CL         137.6310    98.1160   146.8100 cl         1 SJQ      -0.128000
     23 H1         139.3630    97.4460   143.1080 h1         1 SJQ       0.090200
     24 H2         139.0360    98.3560   144.5570 h1         1 SJQ       0.090200
     25 H3         132.7090    96.9150   142.6410 hc         1 SJQ       0.072700
     26 H4         131.6630    95.9990   141.5720 hc         1 SJQ       0.072700
     27 H5         133.4330    94.3450   141.1420 hc         1 SJQ       0.050700
     28 H6         133.1910    94.5030   142.8650 hc         1 SJQ       0.050700
     29 H7         134.8170    98.1280   141.5400 hc         1 SJQ       0.072700
     30 H8         135.0240    97.9470   139.8060 hc         1 SJQ       0.072700
     31 H9         135.5130    95.5470   140.0530 hc         1 SJQ       0.050700
     32 H10        136.5810    96.4680   141.0750 hc         1 SJQ       0.050700
     33 H11        135.5890    94.4030   142.1320 hc         1 SJQ       0.046700
     34 H14        137.0720    94.7840   145.3290 h1         1 SJQ       0.053200
     35 H15        137.0330    94.1020   143.7090 h1         1 SJQ       0.053200
     36 H16        139.3280    94.1810   144.7060 h1         1 SJQ       0.069200
     37 H17        139.2190    95.0190   143.1640 h1         1 SJQ       0.069200
     38 H18        141.1080    94.7730   145.9350 h4         1 SJQ       0.050800
     39 H19        140.8280    96.1550   149.6570 hn         1 SJQ       0.358500
     40 CAI        135.3160    96.0270   143.4880 c3         1 SJQ       0.095000
     41 FAA        133.0230    96.3770   139.4240 f          1 SJQ      -0.126000
     42 H12        134.8510    97.0090   143.5450 h1         1 SJQ       0.061200
     43 H13        134.8670    95.4220   144.2820 h1         1 SJQ       0.061200
@<TRIPOS>BOND
     1     1     2 1   
     2     1    12 1   
     3     1    13 1   
     4     2     3 1   
     5     2    23 1   
     6     2    24 1   
     7     3     4 2   
     8     3    18 1   
     9     5     6 1   
    10     5     8 1   
    11     5    17 1   
    12     5    41 1   
    13     6     7 1   
    14     6    25 1   
    15     6    26 1   
    16     7    10 1   
    17     7    27 1   
    18     7    28 1   
    19     8     9 1   
    20     8    29 1   
    21     8    30 1   
    22     9    10 1   
    23     9    31 1   
    24     9    32 1   
    25    10    33 1   
    26    10    40 1   
    27    11    12 1   
    28    11    18 1   
    29    11    34 1   
    30    11    35 1   
    31    12    36 1   
    32    12    37 1   
    33    13    14 1   
    34    13    15 2   
    35    14    19 2   
    36    14    38 1   
    37    15    16 1   
    38    15    22 1   
    39    16    20 1   
    40    16    21 2   
    41    18    40 1   
    42    19    20 1   
    43    20    39 1   
    44    40    42 1   
    45    40    43 1   
@<TRIPOS>SUBSTRUCTURE
     1 SJQ         1 TEMP              0 ****  ****    0 ROOT
