@<TRIPOS>MOLECULE
SJQ
   43    45     1     0     0
SMALL
No Charge or Current Charge


@<TRIPOS>ATOM
      1 N          139.2300    96.2410   144.9740 nh         1 SJQ      -0.667400
      2 CA         138.6940    97.4410   144.2460 c6         1 SJQ       0.123800
      3 C          137.1960    97.3980   143.8220 c          1 SJQ       0.548000
      4 O          136.6330    98.4160   143.4380 o          1 SJQ      -0.556000
      5 CAB        133.2570    97.1320   140.3150 c6         1 SJQ       0.180000
      6 CAC        132.5990    96.3330   141.4670 c6         1 SJQ      -0.127400
      7 CAD        133.3960    95.0380   141.7830 c6         1 SJQ      -0.066400
      8 CAF        134.7610    97.4090   140.5500 c6         1 SJQ      -0.127400
      9 CAG        135.5340    96.1030   140.8820 c6         1 SJQ      -0.066400
     10 CAH        134.8980    95.3250   142.0720 c6         1 SJQ      -0.078700
     11 CAK        137.1560    94.9470   144.4900 c6         1 SJQ       0.072000
     12 CAL        138.7050    94.9600   144.4390 c6         1 SJQ       0.194800
     13 CAP        139.7770    96.3140   146.2530 cc         1 SJQ       0.107400
     14 CAQ        141.0790    95.7220   146.4900 cc         1 SJQ       0.332500
     15 CAT        139.1320    96.9080   147.3340 cd         1 SJQ      -0.081200
     16 CAV        139.7860    96.9430   148.6750 c          1 SJQ       0.553200
     17 FAE        132.5810    98.3540   140.1550 f          1 SJQ      -0.126000
     18 NAJ        136.5200    96.1500   143.8790 n          1 SJQ      -0.407800
     19 NAR        141.7070    95.7250   147.6640 nd         1 SJQ      -0.396300
     20 NAS        141.0320    96.3380   148.6970 ns         1 SJQ      -0.230900
     21 OAW        139.2950    97.4430   149.6780 o          1 SJQ      -0.518000
     22 Cl         137.5260    97.5990   147.2600 cl         1 SJQ      -0.128000
     23 H1         139.2600    97.5850   143.3160 h1         1 SJQ       0.090200
     24 H2         138.8250    98.3530   144.8440 h1         1 SJQ       0.090200
     25 H3         132.5370    96.9640   142.3640 hc         1 SJQ       0.072700
     26 H4         131.5640    96.0790   141.2000 hc         1 SJQ       0.072700
     27 H5         133.3170    94.3470   140.9320 hc         1 SJQ       0.050700
     28 H6         132.9390    94.5180   142.6360 hc         1 SJQ       0.050700
     29 H7         134.8750    98.1310   141.3680 hc         1 SJQ       0.072700
     30 H8         135.1960    97.8840   139.6600 hc         1 SJQ       0.072700
     31 H9         135.5460    95.4560   139.9940 hc         1 SJQ       0.050700
     32 H10        136.5870    96.3350   141.0940 hc         1 SJQ       0.050700
     33 H11        135.4080    94.3550   142.1500 hc         1 SJQ       0.046700
     34 H14        136.8420    94.8900   145.5410 h1         1 SJQ       0.053200
     35 H15        136.7920    94.0380   143.9920 h1         1 SJQ       0.053200
     36 H16        139.0930    94.1050   145.0120 h1         1 SJQ       0.069200
     37 H17        139.0320    94.8280   143.3970 h1         1 SJQ       0.069200
     38 H18        141.6320    95.2360   145.6990 h4         1 SJQ       0.050800
     39 H19        141.4840    96.3580   149.6080 hn         1 SJQ       0.358500
     40 CAI        135.1050    96.0270   143.4520 c3         1 SJQ       0.095000
     41 FAA        133.0920    96.4310   139.1060 f          1 SJQ      -0.126000
     42 H12        134.6280    97.0150   143.4350 h1         1 SJQ       0.061200
     43 H13        134.5740    95.4410   144.2150 h1         1 SJQ       0.061200
@<TRIPOS>BOND
     1     1     2 1   
     2     1    12 1   
     3     1    13 1   
     4     2     3 1   
     5     2    23 1   
     6     2    24 1   
     7     3     4 2   
     8     3    18 1   
     9     5     6 1   
    10     5     8 1   
    11     5    17 1   
    12     5    41 1   
    13     6     7 1   
    14     6    25 1   
    15     6    26 1   
    16     7    10 1   
    17     7    27 1   
    18     7    28 1   
    19     8     9 1   
    20     8    29 1   
    21     8    30 1   
    22     9    10 1   
    23     9    31 1   
    24     9    32 1   
    25    10    33 1   
    26    10    40 1   
    27    11    12 1   
    28    11    18 1   
    29    11    34 1   
    30    11    35 1   
    31    12    36 1   
    32    12    37 1   
    33    13    14 1   
    34    13    15 2   
    35    14    19 2   
    36    14    38 1   
    37    15    16 1   
    38    15    22 1   
    39    16    20 1   
    40    16    21 2   
    41    18    40 1   
    42    19    20 1   
    43    20    39 1   
    44    40    42 1   
    45    40    43 1   
@<TRIPOS>SUBSTRUCTURE
     1 SJQ         1 TEMP              0 ****  ****    0 ROOT
