@<TRIPOS>MOLECULE
SJR
   29    30     1     0     0
SMALL
abcg2


@<TRIPOS>ATOM
      1 C           -5.6620     1.3970     0.2600 c3         1 SJR       0.146900
      2 N            1.2810     0.2870    -0.0890 ns         1 SJR      -0.333900
      3 O           -5.0910     0.1710    -0.1610 os         1 SJR      -0.336100
      4 C1          -3.7610     0.0250    -0.1000 ca         1 SJR       0.167100
      5 N1           3.2620    -0.6310     0.7460 nb         1 SJR      -0.675000
      6 O1           0.8420    -1.9440     0.0550 o          1 SJR      -0.539100
      7 C2          -3.2530    -1.2120    -0.5130 ca         1 SJR      -0.186000
      8 C3          -1.8970    -1.4520    -0.4770 ca         1 SJR      -0.031500
      9 C4          -1.0020    -0.4680    -0.0520 ca         1 SJR      -0.200600
     10 C5           0.4490    -0.7970    -0.0150 c          1 SJR       0.631700
     11 C6           2.6710     0.2950     0.0110 ca         1 SJR       0.485900
     12 C7           3.3740     1.3130    -0.6390 ca         1 SJR      -0.213000
     13 C8           4.7480     1.3460    -0.5080 ca         1 SJR      -0.047000
     14 C9           5.3810     0.3660     0.2490 ca         1 SJR      -0.197000
     15 C10          4.5870    -0.5950     0.8490 ca         1 SJR       0.371900
     16 C11         -1.5170     0.7570     0.3620 ca         1 SJR      -0.031500
     17 C12         -2.8800     1.0090     0.3450 ca         1 SJR      -0.186000
     18 H           -5.3180     2.2360    -0.3490 h1         1 SJR       0.043700
     19 HA          -6.7370     1.2920     0.1360 h1         1 SJR       0.043700
     20 HB          -5.4470     1.6060     1.3100 h1         1 SJR       0.043700
     21 HN           0.8720     1.1520    -0.4080 hn         1 SJR       0.154000
     22 H2          -3.9350    -1.9800    -0.8570 ha         1 SJR       0.126500
     23 H3          -1.5260    -2.4170    -0.7960 ha         1 SJR       0.124500
     24 H7           2.8530     2.0550    -1.2310 ha         1 SJR       0.120000
     25 H8           5.3210     2.1220    -0.9970 ha         1 SJR       0.118000
     26 H9           6.4540     0.3500     0.3740 ha         1 SJR       0.126000
     27 H10          5.0370    -1.3750     1.4530 h4         1 SJR       0.023100
     28 H11         -0.8660     1.5380     0.7360 ha         1 SJR       0.124500
     29 H12         -3.2330     1.9710     0.6900 ha         1 SJR       0.126500
@<TRIPOS>BOND
     1     1     3 1   
     2     1    18 1   
     3     1    19 1   
     4     1    20 1   
     5     2    10 1   
     6     2    11 1   
     7     2    21 1   
     8     3     4 1   
     9     4     7 ar  
    10     4    17 ar  
    11     5    11 ar  
    12     5    15 ar  
    13     6    10 2   
    14     7     8 ar  
    15     7    22 1   
    16     8     9 ar  
    17     8    23 1   
    18     9    10 1   
    19     9    16 ar  
    20    11    12 ar  
    21    12    13 ar  
    22    12    24 1   
    23    13    14 ar  
    24    13    25 1   
    25    14    15 ar  
    26    14    26 1   
    27    15    27 1   
    28    16    17 ar  
    29    16    28 1   
    30    17    29 1   
@<TRIPOS>SUBSTRUCTURE
     1 SJR         1 TEMP              0 ****  ****    0 ROOT
