@<TRIPOS>MOLECULE
SJR
   29    30     1     0     0
SMALL
No Charge or Current Charge


@<TRIPOS>ATOM
      1 C           -5.7570     1.4540     0.2710 c3         1 SJR       0.146900
      2 N            1.3210     0.2400    -0.0470 ns         1 SJR      -0.333900
      3 O           -5.1680     0.1690     0.0060 os         1 SJR      -0.336100
      4 C1          -3.8020    -0.0180    -0.0410 ca         1 SJR       0.167100
      5 N1           3.3210    -0.7260     0.6510 nb         1 SJR      -0.675000
      6 O1           0.8780    -1.9630    -0.4710 o          1 SJR      -0.539100
      7 C2          -3.3250    -1.3090    -0.3060 ca         1 SJR      -0.186000
      8 C3          -1.9450    -1.5640    -0.3670 ca         1 SJR      -0.031500
      9 C4          -1.0110    -0.5230    -0.1630 ca         1 SJR      -0.200600
     10 C5           0.4730    -0.8310    -0.2360 c          1 SJR       0.631700
     11 C6           2.7190     0.2890    -0.0020 ca         1 SJR       0.485900
     12 C7           3.4130     1.4020    -0.5020 ca         1 SJR      -0.213000
     13 C8           4.8100     1.4500    -0.3730 ca         1 SJR      -0.047000
     14 C9           5.4440     0.3790     0.2760 ca         1 SJR      -0.197000
     15 C10          4.6670    -0.6810     0.7740 ca         1 SJR       0.371900
     16 C11         -1.4980     0.7800     0.1050 ca         1 SJR      -0.031500
     17 C12         -2.8810     1.0290     0.1650 ca         1 SJR      -0.186000
     18 H           -5.4620     2.1840    -0.4930 h1         1 SJR       0.043700
     19 HA          -6.8520     1.3790     0.2630 h1         1 SJR       0.043700
     20 HB          -5.4500     1.8290     1.2560 h1         1 SJR       0.043700
     21 HN           0.8720     1.1370     0.0640 hn         1 SJR       0.154000
     22 H2          -4.0310    -2.1200    -0.4660 ha         1 SJR       0.126500
     23 H3          -1.6070    -2.5770    -0.5750 ha         1 SJR       0.124500
     24 H7           2.8740     2.2120    -0.9860 ha         1 SJR       0.120000
     25 H8           5.3820     2.2920    -0.7590 ha         1 SJR       0.118000
     26 H9           6.5230     0.3670     0.4040 ha         1 SJR       0.126000
     27 H10          5.1360    -1.5170     1.2920 h4         1 SJR       0.023100
     28 H11         -0.8210     1.6140     0.2720 ha         1 SJR       0.124500
     29 H12         -3.2160     2.0400     0.3740 ha         1 SJR       0.126500
@<TRIPOS>BOND
     1     1     3 1   
     2     1    18 1   
     3     1    19 1   
     4     1    20 1   
     5     2    10 1   
     6     2    11 1   
     7     2    21 1   
     8     3     4 1   
     9     4     7 ar  
    10     4    17 ar  
    11     5    11 ar  
    12     5    15 ar  
    13     6    10 2   
    14     7     8 ar  
    15     7    22 1   
    16     8     9 ar  
    17     8    23 1   
    18     9    10 1   
    19     9    16 ar  
    20    11    12 ar  
    21    12    13 ar  
    22    12    24 1   
    23    13    14 ar  
    24    13    25 1   
    25    14    15 ar  
    26    14    26 1   
    27    15    27 1   
    28    16    17 ar  
    29    16    28 1   
    30    17    29 1   
@<TRIPOS>SUBSTRUCTURE
     1 SJR         1 TEMP              0 ****  ****    0 ROOT
