@<TRIPOS>MOLECULE
SJS
   49    53     1     0     0
SMALL
No Charge or Current Charge


@<TRIPOS>ATOM
      1 C4         -31.6140    20.7590   -14.3890 cp         1 SJS      -0.110000
      2 C5         -31.8090    21.7190   -13.3590 ca         1 SJS       0.204500
      3 C6         -32.8570    21.5930   -12.4320 ca         1 SJS      -0.170000
      4 C8         -30.4910    20.8860   -15.3780 cp         1 SJS      -0.123000
      5 C10        -28.1880    21.2880   -15.9460 ca         1 SJS      -0.147000
      6 N12        -26.3500    21.5070   -17.1570 na         1 SJS       0.036500
      7 C15        -28.4620    21.0820   -17.2960 ca         1 SJS       0.220000
      8 C17        -30.6910    20.6970   -16.7760 ca         1 SJS       0.387900
      9 C20        -23.7150    22.4530   -13.7890 c          1 SJS       0.582200
     10 C24        -25.6590    22.2610   -12.4470 cc         1 SJS       0.741800
     11 C28        -26.1540    20.4150    -9.6230 c6         1 SJS      -0.127400
     12 C1         -33.7400    20.5050   -12.5060 ca         1 SJS      -0.056000
     13 C11        -26.7840    21.5770   -15.8490 cd         1 SJS      -0.052100
     14 C18        -25.9560    21.8920   -14.7050 cd         1 SJS       0.299600
     15 C19        -24.6060    22.1250   -14.8770 cc         1 SJS      -0.415200
     16 C2         -33.5690    19.5430   -13.5130 ca         1 SJS      -0.170000
     17 C27        -25.4240    21.7220   -10.0150 c6         1 SJS       0.215800
     18 C29        -27.6440    20.6830    -9.3110 c6         1 SJS       0.174300
     19 C3         -32.5220    19.6670   -14.4410 ca         1 SJS       0.204500
     20 C30        -28.3200    21.3920   -10.5040 c6         1 SJS      -0.127400
     21 C31        -27.5530    22.6810   -10.8770 c6         1 SJS       0.215800
     22 C9         -29.1760    21.1930   -14.9580 ca         1 SJS       0.028000
     23 F33        -32.3800    18.7030   -15.3770 f          1 SJS      -0.169000
     24 F7         -30.9980    22.7960   -13.2610 f          1 SJS      -0.169000
     25 N13        -27.3190    21.2120   -18.1070 nc         1 SJS      -0.240400
     26 N16        -29.7090    20.7910   -17.7130 nb         1 SJS      -0.626000
     27 N22        -24.3430    22.4970   -12.6090 ns         1 SJS      -0.436400
     28 N25        -26.4960    21.9740   -13.4270 nd         1 SJS      -0.723300
     29 N26        -26.1220    22.3740   -11.1590 nh         1 SJS      -0.739600
     30 O32        -28.3170    19.4540    -9.0330 oh         1 SJS      -0.649000
     31 H1         -32.9840    22.3450   -11.6580 ha         1 SJS       0.137500
     32 H2         -25.3950    21.6610   -17.4610 hn         1 SJS       0.381000
     33 H3         -31.6850    20.4710   -17.1590 h4         1 SJS       0.024100
     34 H4         -26.0680    19.6910   -10.4450 hc         1 SJS       0.066200
     35 H5         -25.6580    19.9670    -8.7520 hc         1 SJS       0.066200
     36 H6         -34.5520    20.4080   -11.7870 ha         1 SJS       0.123000
     37 H7         -24.1160    22.0810   -15.8390 ha         1 SJS       0.211000
     38 H8         -34.2450    18.6940   -13.5740 ha         1 SJS       0.137500
     39 H9         -24.3780    21.4830   -10.2530 h1         1 SJS       0.067450
     40 H10        -25.4070    22.4020    -9.1500 h1         1 SJS       0.067450
     41 H11        -27.7050    21.3450    -8.4340 h1         1 SJS       0.026700
     42 H12        -29.3600    21.6390   -10.2570 hc         1 SJS       0.066200
     43 H13        -28.3510    20.7200   -11.3720 hc         1 SJS       0.066200
     44 H14        -27.6220    23.3950   -10.0420 h1         1 SJS       0.067450
     45 H15        -28.0410    23.1640   -11.7380 h1         1 SJS       0.067450
     46 H16        -28.9450    21.3360   -13.9070 ha         1 SJS       0.137000
     47 H17        -23.7970    22.7550   -11.8070 hn         1 SJS       0.328500
     48 H18        -27.9110    19.0870    -8.2170 ho         1 SJS       0.445000
     49 O21        -22.5230    22.6720   -13.9110 o          1 SJS      -0.544000
@<TRIPOS>BOND
     1     1     2 ar  
     2     1     4 1   
     3     1    19 ar  
     4     2     3 ar  
     5     2    24 1   
     6     3    12 ar  
     7     3    31 1   
     8     4     8 ar  
     9     4    22 ar  
    10     5     7 ar  
    11     5    13 2   
    12     5    22 ar  
    13     6    13 1   
    14     6    25 1   
    15     6    32 1   
    16     7    25 2   
    17     7    26 ar  
    18     8    26 ar  
    19     8    33 1   
    20     9    15 1   
    21     9    27 1   
    22     9    49 2   
    23    10    27 1   
    24    10    28 2   
    25    10    29 1   
    26    11    17 1   
    27    11    18 1   
    28    11    34 1   
    29    11    35 1   
    30    12    16 ar  
    31    12    36 1   
    32    13    14 1   
    33    14    15 2   
    34    14    28 1   
    35    15    37 1   
    36    16    19 ar  
    37    16    38 1   
    38    17    29 1   
    39    17    39 1   
    40    17    40 1   
    41    18    20 1   
    42    18    30 1   
    43    18    41 1   
    44    19    23 1   
    45    20    21 1   
    46    20    42 1   
    47    20    43 1   
    48    21    29 1   
    49    21    44 1   
    50    21    45 1   
    51    22    46 1   
    52    27    47 1   
    53    30    48 1   
@<TRIPOS>SUBSTRUCTURE
     1 SJS         1 TEMP              0 ****  ****    0 ROOT
