@<TRIPOS>MOLECULE
SJS
   49    53     1     0     0
SMALL
abcg2


@<TRIPOS>ATOM
      1 C4         -31.5420    20.7740   -14.3080 cp         1 SJS      -0.110000
      2 C5         -31.8430    21.6220   -13.2470 ca         1 SJS       0.204500
      3 C6         -32.8590    21.3760   -12.3450 ca         1 SJS      -0.170000
      4 C8         -30.4450    21.0520   -15.2550 cp         1 SJS      -0.123000
      5 C10        -28.1870    21.4930   -15.7950 ca         1 SJS      -0.147000
      6 N12        -26.5100    21.8330   -17.1250 na         1 SJS       0.036500
      7 C15        -28.5740    21.5090   -17.1590 ca         1 SJS       0.220000
      8 C17        -30.7220    21.1220   -16.6550 ca         1 SJS       0.387900
      9 C20        -23.6450    21.7170   -13.7780 c          1 SJS       0.582200
     10 C24        -25.6610    22.1450   -12.4850 cc         1 SJS       0.741800
     11 C28        -26.1560    20.7550    -9.5220 c6         1 SJS      -0.127400
     12 C1         -33.6180    20.2260   -12.5020 ca         1 SJS      -0.056000
     13 C11        -26.8080    21.7140   -15.8230 cd         1 SJS      -0.052100
     14 C18        -25.8510    21.8010   -14.7300 cd         1 SJS       0.299600
     15 C19        -24.5090    21.6150   -14.9110 cc         1 SJS      -0.415200
     16 C2         -33.3610    19.3410   -13.5390 ca         1 SJS      -0.170000
     17 C27        -25.5880    22.0820   -10.0160 c6         1 SJS       0.215800
     18 C29        -27.6780    20.8260    -9.4100 c6         1 SJS       0.174300
     19 C3         -32.3320    19.6350   -14.4110 ca         1 SJS       0.204500
     20 C30        -28.2870    21.2790   -10.7290 c6         1 SJS      -0.127400
     21 C31        -27.6460    22.5890   -11.1720 c6         1 SJS       0.215800
     22 C9         -29.1610    21.2450   -14.8170 ca         1 SJS       0.028000
     23 F33        -32.0630    18.7760   -15.4030 f          1 SJS      -0.169000
     24 F7         -31.1120    22.7340   -13.1010 f          1 SJS      -0.169000
     25 N13        -27.5280    21.7240   -17.9580 nc         1 SJS      -0.240400
     26 N16        -29.8380    21.3340   -17.5890 nb         1 SJS      -0.626000
     27 N22        -24.3160    21.9860   -12.5850 ns         1 SJS      -0.436400
     28 N25        -26.4330    22.0510   -13.5400 nd         1 SJS      -0.723300
     29 N26        -26.2000    22.4440   -11.2880 nh         1 SJS      -0.739600
     30 O32        -28.2440    19.5820    -9.0630 oh         1 SJS      -0.649000
     31 H1         -33.0530    22.0730   -11.5410 ha         1 SJS       0.137500
     32 H2         -25.5960    22.0320   -17.5090 hn         1 SJS       0.381000
     33 H3         -31.7490    21.0010   -16.9860 h4         1 SJS       0.024100
     34 H4         -25.8720    19.9560   -10.2140 hc         1 SJS       0.066200
     35 H5         -25.7150    20.5200    -8.5490 hc         1 SJS       0.066200
     36 H6         -34.4170    20.0150   -11.8050 ha         1 SJS       0.123000
     37 H7         -24.0750    21.3720   -15.8700 ha         1 SJS       0.211000
     38 H8         -33.9400    18.4370   -13.6630 ha         1 SJS       0.137500
     39 H9         -24.5040    22.0340   -10.0790 h1         1 SJS       0.067450
     40 H10        -25.8080    22.8810    -9.3040 h1         1 SJS       0.067450
     41 H11        -27.9210    21.5870    -8.6520 h1         1 SJS       0.026700
     42 H12        -29.3640    21.4220   -10.6190 hc         1 SJS       0.066200
     43 H13        -28.1290    20.5150   -11.4970 hc         1 SJS       0.066200
     44 H14        -27.8290    23.3670   -10.4260 h1         1 SJS       0.067450
     45 H15        -28.0590    22.9380   -12.1130 h1         1 SJS       0.067450
     46 H16        -28.8940    21.1850   -13.7710 ha         1 SJS       0.137000
     47 H17        -23.7230    22.1100   -11.7770 hn         1 SJS       0.328500
     48 H18        -27.9190    19.3350    -8.1920 ho         1 SJS       0.445000
     49 O21        -22.4290    21.5930   -13.7710 o          1 SJS      -0.544000
@<TRIPOS>BOND
     1     1     2 ar  
     2     1     4 1   
     3     1    19 ar  
     4     2     3 ar  
     5     2    24 1   
     6     3    12 ar  
     7     3    31 1   
     8     4     8 ar  
     9     4    22 ar  
    10     5     7 ar  
    11     5    13 2   
    12     5    22 ar  
    13     6    13 1   
    14     6    25 1   
    15     6    32 1   
    16     7    25 2   
    17     7    26 ar  
    18     8    26 ar  
    19     8    33 1   
    20     9    15 1   
    21     9    27 1   
    22     9    49 2   
    23    10    27 1   
    24    10    28 2   
    25    10    29 1   
    26    11    17 1   
    27    11    18 1   
    28    11    34 1   
    29    11    35 1   
    30    12    16 ar  
    31    12    36 1   
    32    13    14 1   
    33    14    15 2   
    34    14    28 1   
    35    15    37 1   
    36    16    19 ar  
    37    16    38 1   
    38    17    29 1   
    39    17    39 1   
    40    17    40 1   
    41    18    20 1   
    42    18    30 1   
    43    18    41 1   
    44    19    23 1   
    45    20    21 1   
    46    20    42 1   
    47    20    43 1   
    48    21    29 1   
    49    21    44 1   
    50    21    45 1   
    51    22    46 1   
    52    27    47 1   
    53    30    48 1   
@<TRIPOS>SUBSTRUCTURE
     1 SJS         1 TEMP              0 ****  ****    0 ROOT
