@<TRIPOS>MOLECULE
SJT
   82    83     1     0     0
SMALL
No Charge or Current Charge


@<TRIPOS>ATOM
      1 C9         -22.4510    37.4790   -34.7360 c3         1 SJT      -0.083100
      2 C8         -22.0010    36.2600   -33.8920 c6         1 SJT       0.156300
      3 C5         -27.2150    30.3450   -34.7770 c          1 SJT       0.587100
      4 C6         -28.3590    29.4140   -34.4030 c3         1 SJT      -0.155100
      5 C2         -26.5910    32.9290   -36.2440 c2         1 SJT      -0.154200
      6 C4         -26.1890    31.3300   -38.1660 c3         1 SJT      -0.083100
      7 N          -23.7510    34.7840   -34.9320 ns         1 SJT      -0.492900
      8 C          -24.2820    33.9120   -35.8470 c          1 SJT       0.599300
      9 O          -23.5920    33.1210   -36.4720 o          1 SJT      -0.623100
     10 C1         -25.7690    33.9630   -35.9250 ce         1 SJT      -0.277200
     11 C10        -22.1830    35.4000   -31.6360 c6         1 SJT       0.173300
     12 C11        -22.5170    33.9530   -32.1260 c6         1 SJT      -0.084700
     13 C12        -24.0330    33.5910   -32.0350 c3         1 SJT      -0.078100
     14 C13        -21.9320    33.7510   -33.5590 c6         1 SJT      -0.092400
     15 C14        -22.7940    35.7870   -30.2570 c3         1 SJT      -0.037200
     16 C15        -22.3670    34.9040   -29.0920 c2         1 SJT      -0.207200
     17 C16        -22.9380    34.8280   -27.8650 ce         1 SJT      -0.074200
     18 C17        -24.1260    35.6930   -27.4520 c3         1 SJT      -0.055900
     19 C18        -22.3780    33.9090   -26.8550 ce         1 SJT      -0.157000
     20 C19        -22.8980    33.6610   -25.6290 c2         1 SJT      -0.197200
     21 C20        -22.2670    32.6860   -24.6440 c6         1 SJT       0.210500
     22 C21        -23.1050    32.5410   -23.3270 c6         1 SJT       0.129300
     23 C22        -22.3510    31.6370   -22.2900 c6         1 SJT       0.159000
     24 C23        -23.0760    31.6160   -20.9130 c3         1 SJT      -0.088100
     25 C24        -20.8980    32.1500   -22.1180 c6         1 SJT      -0.123400
     26 C25        -20.1670    32.2790   -23.4760 c6         1 SJT       0.392000
     27 C26        -18.7650    32.9240   -23.2970 c3         1 SJT      -0.102100
     28 C3         -26.2060    31.5120   -36.6380 c3         1 SJT       0.200500
     29 C7         -22.3310    34.8830   -34.5530 c6         1 SJT       0.089700
     30 O1         -27.2060    30.6160   -36.1220 os         1 SJT      -0.466100
     31 O2         -26.4070    30.7830   -33.9690 o          1 SJT      -0.482000
     32 O3         -22.6430    36.3740   -32.6010 os         1 SJT      -0.473000
     33 O4         -24.4090    31.9870   -23.5990 oh         1 SJT      -0.701000
     34 O5         -22.3090    30.2880   -22.7710 oh         1 SJT      -0.660000
     35 O6         -20.9230    33.1380   -24.3480 os         1 SJT      -0.483000
     36 O7         -20.0160    30.9680   -24.0740 os         1 SJT      -0.511000
     37 H1         -22.1260    38.4160   -34.2710 hc         1 SJT       0.045700
     38 H2         -22.0160    37.4410   -35.7420 hc         1 SJT       0.045700
     39 H3         -23.5420    37.5210   -34.8430 hc         1 SJT       0.045700
     40 H4         -20.9120    36.3340   -33.7490 h1         1 SJT       0.039700
     41 H5         -28.3790    29.1790   -33.3330 hc         1 SJT       0.068700
     42 H6         -29.3010    29.8580   -34.7420 hc         1 SJT       0.068700
     43 H7         -28.2940    28.5100   -35.0180 hc         1 SJT       0.068700
     44 H8         -27.6710    33.0830   -36.2190 ha         1 SJT       0.178000
     45 H10        -25.9250    30.2990   -38.4270 hc         1 SJT       0.050700
     46 H11        -27.1710    31.5590   -38.5960 hc         1 SJT       0.050700
     47 H12        -24.4090    35.3650   -34.4290 hn         1 SJT       0.322500
     48 H13        -26.2130    34.8980   -35.5870 ha         1 SJT       0.177000
     49 H14        -21.0900    35.4980   -31.5490 h1         1 SJT       0.031700
     50 H15        -22.0100    33.2370   -31.4640 hc         1 SJT       0.057700
     51 H16        -24.3470    33.4690   -30.9910 hc         1 SJT       0.036033
     52 H17        -24.6710    34.3640   -32.4760 hc         1 SJT       0.036033
     53 H18        -24.2480    32.6440   -32.5450 hc         1 SJT       0.036033
     54 H19        -22.2230    32.7700   -33.9590 hc         1 SJT       0.056700
     55 H20        -20.8360    33.7260   -33.4890 hc         1 SJT       0.056700
     56 H21        -22.5130    36.8230   -30.0300 hc         1 SJT       0.060700
     57 H22        -23.8870    35.7920   -30.3390 hc         1 SJT       0.060700
     58 H23        -21.5020    34.2780   -29.3160 ha         1 SJT       0.166000
     59 H24        -23.9630    36.1540   -26.4710 hc         1 SJT       0.042700
     60 H25        -24.3130    36.5170   -28.1490 hc         1 SJT       0.042700
     61 H26        -25.0450    35.0970   -27.3950 hc         1 SJT       0.042700
     62 H27        -21.4630    33.3880   -27.1450 ha         1 SJT       0.170000
     63 H28        -23.8160    34.1400   -25.2890 ha         1 SJT       0.177000
     64 H29        -22.2050    31.7030   -25.1350 h1         1 SJT       0.063700
     65 H30        -23.2170    33.5450   -22.8910 h1         1 SJT       0.038700
     66 H31        -22.5290    31.0050   -20.1850 hc         1 SJT       0.045367
     67 H32        -23.1650    32.6260   -20.4960 hc         1 SJT       0.045367
     68 H33        -24.0880    31.2010   -20.9910 hc         1 SJT       0.045367
     69 H34        -20.9130    33.1300   -21.6220 hc         1 SJT       0.069200
     70 H35        -20.3320    31.4810   -21.4550 hc         1 SJT       0.069200
     71 H36        -18.0740    32.2330   -22.8010 hc         1 SJT       0.054700
     72 H37        -18.3260    33.2170   -24.2570 hc         1 SJT       0.054700
     73 H38        -18.8250    33.8290   -22.6820 hc         1 SJT       0.054700
     74 H39        -19.4050    29.8280   -25.7200 h1         1 SJT       0.038033
     75 H40        -19.8040    31.5160   -26.0970 h1         1 SJT       0.038033
     76 H41        -18.2800    31.1170   -25.2610 h1         1 SJT       0.038033
     77 H42        -25.2150    31.2490   -36.2440 h1         1 SJT       0.103700
     78 H43        -21.7290    34.7810   -35.4680 h1         1 SJT       0.079700
     79 H44        -24.2900    31.0150   -23.4770 ho         1 SJT       0.504000
     80 H45        -21.4750    30.2390   -23.3040 ho         1 SJT       0.467000
     81 C27        -19.3440    30.8590   -25.3470 c3         1 SJT       0.151900
     82 H9         -25.4490    31.9990   -38.6210 hc         1 SJT       0.050700
@<TRIPOS>BOND
     1     1     2 1   
     2     1    37 1   
     3     1    38 1   
     4     1    39 1   
     5     2    29 1   
     6     2    32 1   
     7     2    40 1   
     8     3     4 1   
     9     3    30 1   
    10     3    31 2   
    11     4    41 1   
    12     4    42 1   
    13     4    43 1   
    14     5    10 2   
    15     5    28 1   
    16     5    44 1   
    17     6    28 1   
    18     6    45 1   
    19     6    46 1   
    20     6    82 1   
    21     7     8 1   
    22     7    29 1   
    23     7    47 1   
    24     8     9 2   
    25     8    10 1   
    26    10    48 1   
    27    11    12 1   
    28    11    15 1   
    29    11    32 1   
    30    11    49 1   
    31    12    13 1   
    32    12    14 1   
    33    12    50 1   
    34    13    51 1   
    35    13    52 1   
    36    13    53 1   
    37    14    29 1   
    38    14    54 1   
    39    14    55 1   
    40    15    16 1   
    41    15    56 1   
    42    15    57 1   
    43    16    17 2   
    44    16    58 1   
    45    17    18 1   
    46    17    19 1   
    47    18    59 1   
    48    18    60 1   
    49    18    61 1   
    50    19    20 2   
    51    19    62 1   
    52    20    21 1   
    53    20    63 1   
    54    21    22 1   
    55    21    35 1   
    56    21    64 1   
    57    22    23 1   
    58    22    33 1   
    59    22    65 1   
    60    23    24 1   
    61    23    25 1   
    62    23    34 1   
    63    24    66 1   
    64    24    67 1   
    65    24    68 1   
    66    25    26 1   
    67    25    69 1   
    68    25    70 1   
    69    26    27 1   
    70    26    35 1   
    71    26    36 1   
    72    27    71 1   
    73    27    72 1   
    74    27    73 1   
    75    28    30 1   
    76    28    77 1   
    77    29    78 1   
    78    33    79 1   
    79    34    80 1   
    80    36    81 1   
    81    74    81 1   
    82    75    81 1   
    83    76    81 1   
@<TRIPOS>SUBSTRUCTURE
     1 SJT         1 TEMP              0 ****  ****    0 ROOT
