@<TRIPOS>MOLECULE
SJT
   82    83     1     0     0
SMALL
abcg2


@<TRIPOS>ATOM
      1 C9         -21.8720    36.0950   -35.1350 c3         1 SJT      -0.083100
      2 C8         -21.7400    35.0290   -34.0670 c6         1 SJT       0.156300
      3 C5         -28.9110    30.9590   -35.5220 c          1 SJT       0.587100
      4 C6         -30.3130    30.4250   -35.5670 c3         1 SJT      -0.155100
      5 C2         -27.2100    33.4250   -36.0430 c2         1 SJT      -0.154200
      6 C4         -26.9820    32.3090   -38.2720 c3         1 SJT      -0.083100
      7 N          -23.9710    34.1420   -34.5570 ns         1 SJT      -0.492900
      8 C          -24.8040    33.4300   -35.3420 c          1 SJT       0.599300
      9 O          -24.4490    32.4000   -35.9280 o          1 SJT      -0.623100
     10 C1         -26.1720    33.9990   -35.4370 ce         1 SJT      -0.277200
     11 C10        -21.7910    34.7560   -31.7010 c6         1 SJT       0.173300
     12 C11        -22.6400    33.4770   -31.7560 c6         1 SJT      -0.084700
     13 C12        -24.1140    33.7120   -31.4090 c3         1 SJT      -0.078100
     14 C13        -22.4260    32.8110   -33.1260 c6         1 SJT      -0.092400
     15 C14        -21.9610    35.5960   -30.4370 c3         1 SJT      -0.037200
     16 C15        -21.5390    34.8610   -29.2070 c2         1 SJT      -0.207200
     17 C16        -22.2260    34.6730   -28.0670 ce         1 SJT      -0.074200
     18 C17        -23.6140    35.1940   -27.8170 c3         1 SJT      -0.055900
     19 C18        -21.5790    33.9240   -26.9900 ce         1 SJT      -0.157000
     20 C19        -22.1100    33.6300   -25.8000 c2         1 SJT      -0.197200
     21 C20        -21.3790    32.8660   -24.7480 c6         1 SJT       0.210500
     22 C21        -22.1000    31.5820   -24.3290 c6         1 SJT       0.129300
     23 C22        -21.3590    30.8860   -23.1650 c6         1 SJT       0.159000
     24 C23        -22.1300    29.6630   -22.6860 c3         1 SJT      -0.088100
     25 C24        -21.2090    31.9050   -22.0300 c6         1 SJT      -0.123400
     26 C25        -20.5810    33.2220   -22.4850 c6         1 SJT       0.392000
     27 C26        -20.6530    34.2920   -21.4100 c3         1 SJT      -0.102100
     28 C3         -27.2380    32.1230   -36.7850 c3         1 SJT       0.200500
     29 C7         -22.5850    33.7750   -34.3120 c6         1 SJT       0.089700
     30 O1         -28.5780    31.5540   -36.6780 os         1 SJT      -0.466100
     31 O2         -28.1610    30.8730   -34.5740 o          1 SJT      -0.482000
     32 O3         -22.0900    35.6140   -32.8100 os         1 SJT      -0.473000
     33 O4         -22.2010    30.7580   -25.4850 oh         1 SJT      -0.701000
     34 O5         -20.0730    30.4140   -23.5960 oh         1 SJT      -0.660000
     35 O6         -21.2680    33.7460   -23.6100 os         1 SJT      -0.483000
     36 O7         -19.2260    32.9040   -22.8320 os         1 SJT      -0.511000
     37 H1         -21.1820    36.9150   -34.9320 hc         1 SJT       0.045700
     38 H2         -21.6340    35.6740   -36.1130 hc         1 SJT       0.045700
     39 H3         -22.8850    36.4970   -35.1710 hc         1 SJT       0.045700
     40 H4         -20.6950    34.6970   -34.0150 h1         1 SJT       0.039700
     41 H5         -30.5550    29.9410   -34.6250 hc         1 SJT       0.068700
     42 H6         -31.0110    31.2430   -35.7560 hc         1 SJT       0.068700
     43 H7         -30.4100    29.7130   -36.3880 hc         1 SJT       0.068700
     44 H8         -28.1590    33.9540   -36.0410 ha         1 SJT       0.178000
     45 H10        -27.0700    31.3520   -38.7880 hc         1 SJT       0.050700
     46 H11        -27.6950    33.0130   -38.7040 hc         1 SJT       0.050700
     47 H12        -24.3360    34.9480   -34.0750 hn         1 SJT       0.322500
     48 H13        -26.3240    34.9610   -34.9610 ha         1 SJT       0.177000
     49 H14        -20.7350    34.4600   -31.7810 h1         1 SJT       0.031700
     50 H15        -22.2310    32.7960   -31.0040 hc         1 SJT       0.057700
     51 H16        -24.2380    33.8830   -30.3400 hc         1 SJT       0.036033
     52 H17        -24.5280    34.5750   -31.9300 hc         1 SJT       0.036033
     53 H18        -24.7130    32.8410   -31.6800 hc         1 SJT       0.036033
     54 H19        -23.1050    31.9660   -33.2490 hc         1 SJT       0.056700
     55 H20        -21.4070    32.4150   -33.1680 hc         1 SJT       0.056700
     56 H21        -21.3270    36.4810   -30.5610 hc         1 SJT       0.060700
     57 H22        -22.9880    35.9510   -30.3730 hc         1 SJT       0.060700
     58 H23        -20.5400    34.4330   -29.2540 ha         1 SJT       0.166000
     59 H24        -23.6220    35.8650   -26.9540 hc         1 SJT       0.042700
     60 H25        -24.0110    35.7390   -28.6700 hc         1 SJT       0.042700
     61 H26        -24.2990    34.3740   -27.5870 hc         1 SJT       0.042700
     62 H27        -20.5690    33.5810   -27.2010 ha         1 SJT       0.170000
     63 H28        -23.1140    33.9470   -25.5380 ha         1 SJT       0.177000
     64 H29        -20.3800    32.6080   -25.1130 h1         1 SJT       0.063700
     65 H30        -23.0990    31.8590   -23.9730 h1         1 SJT       0.038700
     66 H31        -21.6410    29.2340   -21.8110 hc         1 SJT       0.045367
     67 H32        -23.1540    29.9310   -22.4190 hc         1 SJT       0.045367
     68 H33        -22.1590    28.9010   -23.4660 hc         1 SJT       0.045367
     69 H34        -22.1950    32.1340   -21.6240 hc         1 SJT       0.069200
     70 H35        -20.6090    31.4730   -21.2280 hc         1 SJT       0.069200
     71 H36        -20.0820    33.9770   -20.5360 hc         1 SJT       0.054700
     72 H37        -20.2540    35.2380   -21.7760 hc         1 SJT       0.054700
     73 H38        -21.6910    34.4470   -21.1190 hc         1 SJT       0.054700
     74 H39        -17.5290    33.5080   -23.7520 h1         1 SJT       0.038033
     75 H40        -18.9470    34.5120   -24.1330 h1         1 SJT       0.038033
     76 H41        -18.1420    34.6650   -22.5500 h1         1 SJT       0.038033
     77 H42        -26.5300    31.4180   -36.3610 h1         1 SJT       0.103700
     78 H43        -22.2240    33.2830   -35.2150 h1         1 SJT       0.079700
     79 H44        -22.8620    30.0750   -25.3210 ho         1 SJT       0.504000
     80 H45        -19.4580    31.1630   -23.5240 ho         1 SJT       0.467000
     81 C27        -18.4250    33.9700   -23.3430 c3         1 SJT       0.151900
     82 H9         -25.9740    32.6960   -38.4160 hc         1 SJT       0.050700
@<TRIPOS>BOND
     1     1     2 1   
     2     1    37 1   
     3     1    38 1   
     4     1    39 1   
     5     2    29 1   
     6     2    32 1   
     7     2    40 1   
     8     3     4 1   
     9     3    30 1   
    10     3    31 2   
    11     4    41 1   
    12     4    42 1   
    13     4    43 1   
    14     5    10 2   
    15     5    28 1   
    16     5    44 1   
    17     6    28 1   
    18     6    45 1   
    19     6    46 1   
    20     6    82 1   
    21     7     8 1   
    22     7    29 1   
    23     7    47 1   
    24     8     9 2   
    25     8    10 1   
    26    10    48 1   
    27    11    12 1   
    28    11    15 1   
    29    11    32 1   
    30    11    49 1   
    31    12    13 1   
    32    12    14 1   
    33    12    50 1   
    34    13    51 1   
    35    13    52 1   
    36    13    53 1   
    37    14    29 1   
    38    14    54 1   
    39    14    55 1   
    40    15    16 1   
    41    15    56 1   
    42    15    57 1   
    43    16    17 2   
    44    16    58 1   
    45    17    18 1   
    46    17    19 1   
    47    18    59 1   
    48    18    60 1   
    49    18    61 1   
    50    19    20 2   
    51    19    62 1   
    52    20    21 1   
    53    20    63 1   
    54    21    22 1   
    55    21    35 1   
    56    21    64 1   
    57    22    23 1   
    58    22    33 1   
    59    22    65 1   
    60    23    24 1   
    61    23    25 1   
    62    23    34 1   
    63    24    66 1   
    64    24    67 1   
    65    24    68 1   
    66    25    26 1   
    67    25    69 1   
    68    25    70 1   
    69    26    27 1   
    70    26    35 1   
    71    26    36 1   
    72    27    71 1   
    73    27    72 1   
    74    27    73 1   
    75    28    30 1   
    76    28    77 1   
    77    29    78 1   
    78    33    79 1   
    79    34    80 1   
    80    36    81 1   
    81    74    81 1   
    82    75    81 1   
    83    76    81 1   
@<TRIPOS>SUBSTRUCTURE
     1 SJT         1 TEMP              0 ****  ****    0 ROOT
