@<TRIPOS>MOLECULE
SJU
   14    14     1     0     0
SMALL
abcg2


@<TRIPOS>ATOM
      1 C01         15.2000    16.4690    49.6490 cc         1 SJU      -0.187000
      2 C02         14.0690    15.7350    49.5210 cd         1 SJU       0.081900
      3 C04         14.4820    16.5870    47.5230 cd         1 SJU       0.244300
      4 C05         15.4680    17.0230    48.3520 cc         1 SJU      -0.248000
      5 C06         14.1940    16.7800    46.0850 c3         1 SJU      -0.269700
      6 C07         14.4740    15.5610    45.1550 c          1 SJU       0.724000
      7 O03         13.6150    15.7970    48.2320 os         1 SJU      -0.247000
      8 O08         14.0470    15.6860    43.9810 o          1 SJU      -0.724000
      9 O09         15.1040    14.5860    45.6270 o          1 SJU      -0.724000
     10 H1          15.7740    16.6070    50.5510 ha         1 SJU       0.112000
     11 H2          13.4810    15.1460    50.2030 h4         1 SJU       0.026100
     12 H3          16.2870    17.6660    48.0750 ha         1 SJU       0.123000
     13 H4          14.8000    17.6100    45.7150 hc         1 SJU       0.043700
     14 H5          13.1490    17.0690    45.9420 hc         1 SJU       0.043700
@<TRIPOS>BOND
     1     1     2 2   
     2     1     4 1   
     3     1    10 1   
     4     2     7 1   
     5     2    11 1   
     6     3     4 2   
     7     3     5 1   
     8     3     7 1   
     9     4    12 1   
    10     5     6 1   
    11     5    13 1   
    12     5    14 1   
    13     6     8 1   
    14     6     9 1   
@<TRIPOS>SUBSTRUCTURE
     1 SJU         1 TEMP              0 ****  ****    0 ROOT
