@<TRIPOS>MOLECULE
SJU
   14    14     1     0     0
SMALL
No Charge or Current Charge


@<TRIPOS>ATOM
      1 C01         15.1000    16.2800    49.5810 cc         1 SJU      -0.187000
      2 C02         13.7660    15.9900    49.4950 cd         1 SJU       0.081900
      3 C04         14.3960    16.5730    47.4940 cd         1 SJU       0.244300
      4 C05         15.5060    16.6600    48.2880 cc         1 SJU      -0.248000
      5 C06         14.2360    16.8760    46.0360 c3         1 SJU      -0.269700
      6 C07         14.7120    15.6880    45.2100 c          1 SJU       0.724000
      7 O03         13.2940    16.1660    48.2140 os         1 SJU      -0.247000
      8 O08         13.9100    14.8000    44.9690 o          1 SJU      -0.724000
      9 O09         15.8990    15.6260    44.9290 o          1 SJU      -0.724000
     10 H1          15.7300    16.2330    50.4640 ha         1 SJU       0.112000
     11 H2          13.0630    15.6620    50.2500 h4         1 SJU       0.026100
     12 H3          16.5050    16.9600    47.9900 ha         1 SJU       0.123000
     13 H4          14.8600    17.7530    45.8310 hc         1 SJU       0.043700
     14 H5          13.1690    17.0540    45.8610 hc         1 SJU       0.043700
@<TRIPOS>BOND
     1     1     2 2   
     2     1     4 1   
     3     1    10 1   
     4     2     7 1   
     5     2    11 1   
     6     3     4 2   
     7     3     5 1   
     8     3     7 1   
     9     4    12 1   
    10     5     6 1   
    11     5    13 1   
    12     5    14 1   
    13     6     8 1   
    14     6     9 1   
@<TRIPOS>SUBSTRUCTURE
     1 SJU         1 TEMP              0 ****  ****    0 ROOT
