@<TRIPOS>MOLECULE
SJV
   64    68     1     0     0
SMALL
bcc


@<TRIPOS>ATOM
      1 C4          17.8360   -39.9140    20.6960 ca         1 SJV      -0.116000
      2 C5          17.1890   -41.1460    20.9410 ca         1 SJV      -0.047000
      3 C6          16.1850   -41.5790    20.0340 ca         1 SJV      -0.016000
      4 C11         14.3100   -42.9140    15.0550 ca         1 SJV      -0.028000
      5 C7          15.8590   -40.7370    18.9450 ca         1 SJV       0.118100
      6 C9          15.0760   -41.8390    17.0180 ca         1 SJV       0.668600
      7 C10         13.9870   -42.2130    16.2120 cp         1 SJV      -0.291800
      8 C12         15.6270   -43.2300    14.7600 ca         1 SJV      -0.295300
      9 C13         16.6030   -42.8130    15.6450 ca         1 SJV       0.457200
     10 C3          17.4850   -39.1420    19.6230 ca         1 SJV      -0.118000
     11 C2          16.4770   -39.5360    18.7170 ca         1 SJV      -0.058300
     12 O8          14.8200   -41.1230    18.1300 os         1 SJV      -0.371400
     13 N14         16.3270   -42.1250    16.7480 nb         1 SJV      -0.741000
     14 C15         12.5680   -41.9020    16.4950 cp         1 SJV       0.567800
     15 C16         12.0430   -41.7100    17.7700 ca         1 SJV      -0.409600
     16 C17         10.6800   -41.4560    17.8360 ca         1 SJV       0.476200
     17 N18          9.8900   -41.4050    16.7820 nb         1 SJV      -0.773000
     18 C19         10.4850   -41.6310    15.5980 ca         1 SJV       0.917900
     19 N20         11.7850   -41.8580    15.4210 nb         1 SJV      -0.799000
     20 N21          9.6850   -41.6330    14.5170 nu         1 SJV      -0.871900
     21 C22         10.1200   -41.8690    13.1600 c6         1 SJV       0.214500
     22 C24          8.9620   -42.4200    12.3340 c6         1 SJV      -0.091400
     23 C25          9.3890   -42.6150    10.8830 c6         1 SJV      -0.110400
     24 C26          9.9740   -41.3240    10.3170 c6         1 SJV       0.146800
     25 N27         11.0590   -40.7740    11.1160 n7         1 SJV      -0.788200
     26 C28         10.6800   -40.5980    12.5060 c6         1 SJV       0.131800
     27 C29         15.5550   -42.8290    20.2330 ca         1 SJV      -0.119000
     28 C30         15.9100   -43.6100    21.2980 ca         1 SJV      -0.110000
     29 C31         16.8770   -43.1800    22.2230 ca         1 SJV      -0.125000
     30 C32         17.5080   -41.9740    22.0550 ca         1 SJV       0.077600
     31 N33         18.4530   -41.5120    22.9840 ns         1 SJV      -0.484100
     32 C34         19.4880   -42.2500    23.4610 c          1 SJV       0.757100
     33 O35         19.7370   -43.3940    23.1550 o          1 SJV      -0.570000
     34 O36         20.2030   -41.5260    24.3200 os         1 SJV      -0.436900
     35 C37         21.3360   -42.1590    24.9090 c3         1 SJV       0.147700
     36 H1          18.6240   -39.5670    21.3510 ha         1 SJV       0.132000
     37 H3          15.8870   -43.7840    13.8690 ha         1 SJV       0.148000
     38 H4          17.6480   -43.0330    15.4650 h4         1 SJV       0.024100
     39 H5          17.9940   -38.2010    19.4550 ha         1 SJV       0.134000
     40 H9          12.6290   -41.7640    18.6710 ha         1 SJV       0.165000
     41 H10         10.2100   -41.2890    18.7990 h4         1 SJV       0.020100
     42 H11          8.7150   -41.4170    14.6830 hn         1 SJV       0.450800
     43 H23         10.9180   -42.6190    13.1850 h1         1 SJV       0.068700
     44 H12          8.1220   -41.7150    12.3710 hc         1 SJV       0.048200
     45 H13          8.6110   -43.3600    12.7660 hc         1 SJV       0.048200
     46 H14          8.5370   -42.9380    10.2800 hc         1 SJV       0.046200
     47 H15         10.1380   -43.4110    10.8210 hc         1 SJV       0.046200
     48 H16         10.3360   -41.4820     9.2990 h1         1 SJV       0.053700
     49 H17          9.1830   -40.5680    10.2550 h1         1 SJV       0.053700
     50 H18         11.8590   -41.3960    11.0640 hn         1 SJV       0.350800
     51 H20         11.5460   -40.2460    13.0700 h1         1 SJV       0.062700
     52 H21          9.9180   -39.8110    12.5640 h1         1 SJV       0.062700
     53 H22         14.7900   -43.1770    19.5520 ha         1 SJV       0.141000
     54 H24         15.4290   -44.5670    21.4490 ha         1 SJV       0.135000
     55 H25         17.1040   -43.8030    23.0760 ha         1 SJV       0.150000
     56 H26         18.3960   -40.5470    23.2750 hn         1 SJV       0.335500
     57 H27         21.7640   -41.4260    25.5870 h1         1 SJV       0.049700
     58 H28         21.0520   -43.0470    25.4730 h1         1 SJV       0.049700
     59 H29         22.0790   -42.4310    24.1590 h1         1 SJV       0.049700
     60 C1          16.1220   -38.6770    17.5420 c3         1 SJV      -0.047800
     61 H2          13.5130   -43.2150    14.3890 ha         1 SJV       0.158000
     62 H6          15.0440   -38.5620    17.4300 hc         1 SJV       0.050033
     63 H7          16.5570   -37.6840    17.6440 hc         1 SJV       0.050033
     64 H8          16.5010   -39.1070    16.6130 hc         1 SJV       0.050033
@<TRIPOS>BOND
     1     1     2 ar  
     2     1    10 ar  
     3     1    36 1   
     4     2     3 ar  
     5     2    30 ar  
     6     3     5 ar  
     7     3    27 ar  
     8     4     7 ar  
     9     4     8 ar  
    10     4    61 1   
    11     5    11 ar  
    12     5    12 1   
    13     6     7 ar  
    14     6    12 1   
    15     6    13 ar  
    16     7    14 1   
    17     8     9 ar  
    18     8    37 1   
    19     9    13 ar  
    20     9    38 1   
    21    10    11 ar  
    22    10    39 1   
    23    11    60 1   
    24    14    15 ar  
    25    14    19 ar  
    26    15    16 ar  
    27    15    40 1   
    28    16    17 ar  
    29    16    41 1   
    30    17    18 ar  
    31    18    19 ar  
    32    18    20 1   
    33    20    21 1   
    34    20    42 1   
    35    21    22 1   
    36    21    26 1   
    37    21    43 1   
    38    22    23 1   
    39    22    44 1   
    40    22    45 1   
    41    23    24 1   
    42    23    46 1   
    43    23    47 1   
    44    24    25 1   
    45    24    48 1   
    46    24    49 1   
    47    25    26 1   
    48    25    50 1   
    49    26    51 1   
    50    26    52 1   
    51    27    28 ar  
    52    27    53 1   
    53    28    29 ar  
    54    28    54 1   
    55    29    30 ar  
    56    29    55 1   
    57    30    31 1   
    58    31    32 1   
    59    31    56 1   
    60    32    33 2   
    61    32    34 1   
    62    34    35 1   
    63    35    57 1   
    64    35    58 1   
    65    35    59 1   
    66    60    62 1   
    67    60    63 1   
    68    60    64 1   
@<TRIPOS>SUBSTRUCTURE
     1 SJV         1 TEMP              0 ****  ****    0 ROOT
