@<TRIPOS>MOLECULE
SJV
   64    68     1     0     0
SMALL
No Charge or Current Charge


@<TRIPOS>ATOM
      1 C4          17.0510   -40.1460    20.0150 ca         1 SJV      -0.098000
      2 C5          16.9500   -41.4260    20.6100 ca         1 SJV      -0.047000
      3 C6          16.0990   -42.3910    20.0130 ca         1 SJV      -0.016000
      4 C11         14.1890   -44.4110    14.9060 ca         1 SJV      -0.010000
      5 C7          15.3700   -42.0670    18.8430 ca         1 SJV       0.118100
      6 C9          14.8650   -43.6330    17.0940 ca         1 SJV       0.603300
      7 C10         13.8310   -43.8180    16.1400 cp         1 SJV      -0.226500
      8 C12         15.5180   -44.8030    14.7020 ca         1 SJV      -0.212000
      9 C13         16.4580   -44.5910    15.7180 ca         1 SJV       0.391900
     10 C3          16.3150   -39.8290    18.8620 ca         1 SJV      -0.100000
     11 C2          15.4660   -40.7790    18.2700 ca         1 SJV      -0.058300
     12 O8          14.5380   -43.0030    18.2690 os         1 SJV      -0.371400
     13 N14         16.1460   -44.0120    16.8950 nb         1 SJV      -0.741000
     14 C15         12.4310   -43.3690    16.3900 cp         1 SJV       0.239500
     15 C16         11.7400   -43.6110    17.5990 ca         1 SJV      -0.261000
     16 C17         10.4220   -43.1440    17.7160 ca         1 SJV       0.147900
     17 N18          9.8210   -42.4860    16.7070 nb         1 SJV      -0.247000
     18 C19         10.5480   -42.3120    15.5920 ca         1 SJV       0.391900
     19 N20         11.8100   -42.7300    15.3820 nb         1 SJV      -0.273000
     20 N21          9.9070   -41.6310    14.5660 nu         1 SJV      -0.927100
     21 C22         10.5250   -41.1810    13.3000 c6         1 SJV       0.214500
     22 C24          9.4080   -40.7880    12.3000 c6         1 SJV      -0.091400
     23 C25         10.0170   -40.2060    10.9970 c6         1 SJV      -0.110400
     24 C26         10.9630   -39.0180    11.3010 c6         1 SJV       0.146800
     25 N27         12.0340   -39.4170    12.2470 n7         1 SJV      -0.843400
     26 C28         11.4890   -39.9670    13.5260 c6         1 SJV       0.131800
     27 C29         15.9870   -43.6730    20.5910 ca         1 SJV      -0.101000
     28 C30         16.7060   -43.9930    21.7490 ca         1 SJV      -0.092000
     29 C31         17.5480   -43.0420    22.3420 ca         1 SJV      -0.107000
     30 C32         17.6870   -41.7540    21.7810 ca         1 SJV      -0.015000
     31 N33         18.5310   -40.7740    22.3810 ns         1 SJV      -0.158000
     32 C34         19.5280   -40.8660    23.3340 c          1 SJV       0.641100
     33 O35         19.9530   -41.8930    23.8450 o          1 SJV      -0.521000
     34 O36         20.0120   -39.6110    23.5880 os         1 SJV      -0.460100
     35 C37         21.0830   -39.4830    24.5420 c3         1 SJV       0.170900
     36 H1          17.6950   -39.3770    20.4320 ha         1 SJV       0.114000
     37 H3          15.8230   -45.2680    13.7690 ha         1 SJV       0.130000
     38 H4          17.4980   -44.8880    15.5830 h4         1 SJV       0.024100
     39 H5          16.4050   -38.8350    18.4310 ha         1 SJV       0.116000
     40 H9          12.2080   -44.1490    18.4190 ha         1 SJV       0.147000
     41 H10          9.8410   -43.2990    18.6240 h4         1 SJV       0.020100
     42 H11          8.9500   -41.3410    14.7730 hn         1 SJV       0.506000
     43 H23         11.1020   -42.0040    12.8500 h1         1 SJV       0.068700
     44 H12          8.7420   -40.0410    12.7530 hc         1 SJV       0.048200
     45 H13          8.7880   -41.6630    12.0620 hc         1 SJV       0.048200
     46 H14          9.2130   -39.8760    10.3260 hc         1 SJV       0.046200
     47 H15         10.5680   -40.9910    10.4610 hc         1 SJV       0.046200
     48 H16         11.4120   -38.6530    10.3650 h1         1 SJV       0.053700
     49 H17         10.3820   -38.1890    11.7330 h1         1 SJV       0.053700
     50 H18         12.6060   -40.1440    11.7980 hn         1 SJV       0.406000
     51 H20         12.3230   -40.2760    14.1750 h1         1 SJV       0.062700
     52 H21         10.9440   -39.1730    14.0570 h1         1 SJV       0.062700
     53 H22         15.3410   -44.4280    20.1490 ha         1 SJV       0.123000
     54 H24         16.6080   -44.9820    22.1920 ha         1 SJV       0.117000
     55 H25         18.0740   -43.3220    23.2490 ha         1 SJV       0.132000
     56 H26         18.3640   -39.8290    22.0630 hn         1 SJV       0.169000
     57 H27         21.3730   -38.4300    24.6520 h1         1 SJV       0.049700
     58 H28         20.7760   -39.8550    25.5290 h1         1 SJV       0.049700
     59 H29         21.9670   -40.0460    24.2170 h1         1 SJV       0.049700
     60 C1          14.6590   -40.3990    17.0310 c3         1 SJV      -0.047800
     61 H2          13.4450   -44.5700    14.1270 ha         1 SJV       0.140000
     62 H6          13.6050   -40.6800    17.1420 hc         1 SJV       0.050033
     63 H7          14.6880   -39.3190    16.8430 hc         1 SJV       0.050033
     64 H8          15.0500   -40.8990    16.1370 hc         1 SJV       0.050033
@<TRIPOS>BOND
     1     1     2 ar  
     2     1    10 ar  
     3     1    36 1   
     4     2     3 ar  
     5     2    30 ar  
     6     3     5 ar  
     7     3    27 ar  
     8     4     7 ar  
     9     4     8 ar  
    10     4    61 1   
    11     5    11 ar  
    12     5    12 1   
    13     6     7 ar  
    14     6    12 1   
    15     6    13 ar  
    16     7    14 1   
    17     8     9 ar  
    18     8    37 1   
    19     9    13 ar  
    20     9    38 1   
    21    10    11 ar  
    22    10    39 1   
    23    11    60 1   
    24    14    15 ar  
    25    14    19 ar  
    26    15    16 ar  
    27    15    40 1   
    28    16    17 ar  
    29    16    41 1   
    30    17    18 ar  
    31    18    19 ar  
    32    18    20 1   
    33    20    21 1   
    34    20    42 1   
    35    21    22 1   
    36    21    26 1   
    37    21    43 1   
    38    22    23 1   
    39    22    44 1   
    40    22    45 1   
    41    23    24 1   
    42    23    46 1   
    43    23    47 1   
    44    24    25 1   
    45    24    48 1   
    46    24    49 1   
    47    25    26 1   
    48    25    50 1   
    49    26    51 1   
    50    26    52 1   
    51    27    28 ar  
    52    27    53 1   
    53    28    29 ar  
    54    28    54 1   
    55    29    30 ar  
    56    29    55 1   
    57    30    31 1   
    58    31    32 1   
    59    31    56 1   
    60    32    33 2   
    61    32    34 1   
    62    34    35 1   
    63    35    57 1   
    64    35    58 1   
    65    35    59 1   
    66    60    62 1   
    67    60    63 1   
    68    60    64 1   
@<TRIPOS>SUBSTRUCTURE
     1 SJV         1 TEMP              0 ****  ****    0 ROOT
