@<TRIPOS>MOLECULE
SJW
   19    19     1     0     0
SMALL
bcc


@<TRIPOS>ATOM
      1 C1         -31.2420    59.4920    39.8900 c3         1 SJW      -0.016100
      2 C3         -31.0070    60.1430    41.2220 ca         1 SJW      -0.200600
      3 C4         -31.7410    59.7690    42.3430 ca         1 SJW       0.403200
      4 C6         -30.6420    61.2210    43.7040 ca         1 SJW       0.398200
      5 C7         -29.8500    61.6730    42.6590 ca         1 SJW      -0.245300
      6 C          -30.3680    57.7290    38.2810 c          1 SJW       0.570900
      7 O          -31.2890    57.9080    37.5230 o          1 SJW      -0.514100
      8 CH3        -30.1750    58.4500    39.5760 c3         1 SJW      -0.201400
      9 C8         -30.0370    61.1240    41.4010 ca         1 SJW      -0.091000
     10 N5         -31.5730    60.2860    43.5540 nb         1 SJW      -0.663000
     11 H1         -31.2510    60.2530    39.1060 hc         1 SJW       0.061700
     12 H2         -32.2270    59.0230    39.8830 hc         1 SJW       0.061700
     13 H3         -32.5110    59.0090    42.2460 h4         1 SJW       0.018100
     14 H4         -30.5220    61.6320    44.7010 h4         1 SJW       0.019100
     15 H5         -29.1070    62.4400    42.8310 ha         1 SJW       0.141000
     16 H6         -30.1190    57.6880    40.3620 hc         1 SJW       0.066700
     17 H7         -29.1740    58.8960    39.5540 hc         1 SJW       0.066700
     18 H8         -29.4370    61.4590    40.5630 ha         1 SJW       0.135000
     19 H9         -29.5840    56.9850    38.0520 h4         1 SJW      -0.013800
@<TRIPOS>BOND
     1     1     2 1   
     2     1     8 1   
     3     1    11 1   
     4     1    12 1   
     5     2     3 ar  
     6     2     9 ar  
     7     3    10 ar  
     8     3    13 1   
     9     4     5 ar  
    10     4    10 ar  
    11     4    14 1   
    12     5     9 ar  
    13     5    15 1   
    14     6     7 2   
    15     6     8 1   
    16     6    19 1   
    17     8    16 1   
    18     8    17 1   
    19     9    18 1   
@<TRIPOS>SUBSTRUCTURE
     1 SJW         1 TEMP              0 ****  ****    0 ROOT
