@<TRIPOS>MOLECULE
SJW
   19    19     1     0     0
SMALL
No Charge or Current Charge


@<TRIPOS>ATOM
      1 C1         -31.1740    59.5160    39.8560 c3         1 SJW      -0.016100
      2 C3         -30.9720    60.1600    41.2220 ca         1 SJW      -0.135300
      3 C4         -31.8340    59.8580    42.2980 ca         1 SJW       0.337900
      4 C6         -30.6850    61.2720    43.7300 ca         1 SJW       0.332900
      5 C7         -29.7780    61.6310    42.7180 ca         1 SJW      -0.162000
      6 C          -30.3980    57.7160    38.2380 c          1 SJW       0.570900
      7 O          -31.2560    56.8710    38.0070 o          1 SJW      -0.514100
      8 CH3        -30.1940    58.3450    39.6180 c3         1 SJW      -0.201400
      9 C8         -29.9190    61.0680    41.4390 ca         1 SJW      -0.073000
     10 N5         -31.7000    60.4000    43.5320 nb         1 SJW      -0.663000
     11 H1         -31.0400    60.2680    39.0680 hc         1 SJW       0.061700
     12 H2         -32.2050    59.1510    39.7570 hc         1 SJW       0.061700
     13 H3         -32.6590    59.1580    42.1690 h4         1 SJW       0.018100
     14 H4         -30.5960    61.6960    44.7300 h4         1 SJW       0.019100
     15 H5         -28.9800    62.3360    42.9290 ha         1 SJW       0.123000
     16 H6         -30.3510    57.5840    40.3920 hc         1 SJW       0.066700
     17 H7         -29.1750    58.7460    39.6690 hc         1 SJW       0.066700
     18 H8         -29.2300    61.3290    40.6390 ha         1 SJW       0.117000
     19 H9         -29.7120    58.0750    37.4390 h4         1 SJW      -0.013800
@<TRIPOS>BOND
     1     1     2 1   
     2     1     8 1   
     3     1    11 1   
     4     1    12 1   
     5     2     3 ar  
     6     2     9 ar  
     7     3    10 ar  
     8     3    13 1   
     9     4     5 ar  
    10     4    10 ar  
    11     4    14 1   
    12     5     9 ar  
    13     5    15 1   
    14     6     7 2   
    15     6     8 1   
    16     6    19 1   
    17     8    16 1   
    18     8    17 1   
    19     9    18 1   
@<TRIPOS>SUBSTRUCTURE
     1 SJW         1 TEMP              0 ****  ****    0 ROOT
