@<TRIPOS>MOLECULE
SJX
   57    60     1     0     0
SMALL
No Charge or Current Charge


@<TRIPOS>ATOM
      1 N           30.3520   -13.4240    22.7260 nu         1 SJX      -0.912100
      2 C           30.1400   -14.8460    23.0590 c3         1 SJX       0.229100
      3 O           28.6780   -13.8440    15.9200 o          1 SJX      -0.523000
      4 C1          30.1680   -12.8130    21.4970 ca         1 SJX       0.424900
      5 C10         28.3840    -9.0940    11.5640 cp         1 SJX       0.411500
      6 C11         28.9970    -7.8640    11.2080 ca         1 SJX      -0.156000
      7 C12         28.7490    -7.2940     9.9490 ca         1 SJX      -0.071000
      8 C13         27.8850    -7.9720     9.0780 ca         1 SJX      -0.165000
      9 C14         27.3020    -9.1800     9.4970 ca         1 SJX       0.365300
     10 C15         26.3600    -9.9530     8.5940 c3         1 SJX      -0.147400
     11 C16         29.7700    -9.4880    13.6760 ca         1 SJX      -0.095000
     12 C17         29.9870   -10.0990    14.9240 ca         1 SJX       0.127000
     13 C18         28.9800   -13.1590    16.8890 c          1 SJX       0.577200
     14 C2          30.2460   -10.8920    20.2750 ca         1 SJX       0.208900
     15 C20         27.5370   -15.5470    18.9580 c3         1 SJX      -0.088400
     16 C21         26.3230   -15.0740    18.1230 c3         1 SJX      -0.079400
     17 C22         24.9740   -15.4740    18.7530 c3         1 SJX       0.148800
     18 C23         29.5840   -12.9720    19.2870 ca         1 SJX       0.313900
     19 C3          29.8210   -11.6030    19.1380 ca         1 SJX      -0.309800
     20 C4          29.6340   -10.9300    17.8640 cc         1 SJX      -0.022200
     21 C5          29.1910   -11.6720    16.7810 cd         1 SJX      -0.171400
     22 C6          29.0410   -11.0190    15.4510 ca         1 SJX      -0.013800
     23 C7          27.8980   -11.3040    14.6750 ca         1 SJX      -0.084000
     24 C8          27.6860   -10.6880    13.4310 ca         1 SJX      -0.069000
     25 C9          28.6120    -9.7550    12.9000 cp         1 SJX      -0.131500
     26 N1          30.4210   -11.4980    21.4630 nb         1 SJX      -0.265000
     27 N2          27.5450    -9.7240    10.7080 nb         1 SJX      -0.679000
     28 N3          29.1570   -13.7440    18.1650 n          1 SJX      -0.362300
     29 N4          23.8370   -15.0180    17.9350 n8         1 SJX      -0.992200
     30 N5          29.7620   -13.5830    20.4760 nb         1 SJX      -0.312000
     31 H1          30.6610   -12.8030    23.4770 hn         1 SJX       0.514000
     32 H2          30.3660   -15.0330    24.1170 h1         1 SJX       0.044700
     33 H3          29.0960   -15.1350    22.8730 h1         1 SJX       0.044700
     34 H4          30.7910   -15.4860    22.4480 h1         1 SJX       0.044700
     35 H5          29.6470    -7.3480    11.9060 ha         1 SJX       0.125000
     36 H6          29.2110    -6.3520     9.6600 ha         1 SJX       0.119000
     37 H7          27.6660    -7.5680     8.0930 ha         1 SJX       0.123000
     38 H8          25.5190   -10.3700     9.1600 hc         1 SJX       0.052367
     39 H9          25.9440    -9.3120     7.8090 hc         1 SJX       0.052367
     40 H10         26.8840   -10.7840     8.1070 hc         1 SJX       0.052367
     41 H11         30.5360    -8.8170    13.2990 ha         1 SJX       0.127000
     42 H12         28.9900   -15.7220    17.3610 h1         1 SJX       0.073200
     43 H13         29.7020   -15.6380    18.9540 h1         1 SJX       0.073200
     44 H14         30.4480    -9.8220    20.2360 h4         1 SJX       0.025100
     45 H15         27.4780   -15.1080    19.9610 hc         1 SJX       0.047200
     46 H16         27.4770   -16.6340    19.0890 hc         1 SJX       0.047200
     47 H17         26.3930   -15.4990    17.1140 hc         1 SJX       0.054200
     48 H18         26.3590   -13.9830    18.0170 hc         1 SJX       0.054200
     49 H19         24.8870   -15.0320    19.7550 h1         1 SJX       0.023700
     50 H20         24.9200   -16.5670    18.8480 h1         1 SJX       0.023700
     51 H21         29.7760    -9.8560    17.7760 ha         1 SJX       0.194000
     52 H22         27.1400   -11.9870    15.0510 ha         1 SJX       0.124000
     53 H23         26.7800   -10.9320    12.8810 ha         1 SJX       0.138000
     54 H24         22.9620   -15.2530    18.4190 hn         1 SJX       0.390000
     55 H25         23.8310   -13.9910    17.9150 hn         1 SJX       0.390000
     56 C19         28.9090   -15.2080    18.3270 c3         1 SJX       0.098000
     57 Cl          31.5330    -9.7630    15.7130 cl         1 SJX      -0.206000
@<TRIPOS>BOND
     1     1     2 1   
     2     1     4 1   
     3     1    31 1   
     4     2    32 1   
     5     2    33 1   
     6     2    34 1   
     7     3    13 2   
     8     4    26 ar  
     9     4    30 ar  
    10     5     6 ar  
    11     5    25 1   
    12     5    27 ar  
    13     6     7 ar  
    14     6    35 1   
    15     7     8 ar  
    16     7    36 1   
    17     8     9 ar  
    18     8    37 1   
    19     9    10 1   
    20     9    27 ar  
    21    10    38 1   
    22    10    39 1   
    23    10    40 1   
    24    11    12 ar  
    25    11    25 ar  
    26    11    41 1   
    27    12    22 ar  
    28    12    57 1   
    29    13    21 1   
    30    13    28 1   
    31    14    19 ar  
    32    14    26 ar  
    33    14    44 1   
    34    15    16 1   
    35    15    45 1   
    36    15    46 1   
    37    15    56 1   
    38    16    17 1   
    39    16    47 1   
    40    16    48 1   
    41    17    29 1   
    42    17    49 1   
    43    17    50 1   
    44    18    19 ar  
    45    18    28 1   
    46    18    30 ar  
    47    19    20 1   
    48    20    21 2   
    49    20    51 1   
    50    21    22 1   
    51    22    23 ar  
    52    23    24 ar  
    53    23    52 1   
    54    24    25 ar  
    55    24    53 1   
    56    28    56 1   
    57    29    54 1   
    58    29    55 1   
    59    42    56 1   
    60    43    56 1   
@<TRIPOS>SUBSTRUCTURE
     1 SJX         1 TEMP              0 ****  ****    0 ROOT
