@<TRIPOS>MOLECULE
SJX
   57    60     1     0     0
SMALL
abcg2


@<TRIPOS>ATOM
      1 N           30.1080   -13.4070    22.7050 nu         1 SJX      -0.912100
      2 C           29.9530   -14.8300    22.8700 c3         1 SJX       0.229100
      3 O           28.8670   -13.6880    15.9580 o          1 SJX      -0.523000
      4 C1          29.9660   -12.7710    21.5410 ca         1 SJX       0.424900
      5 C10         28.4420    -9.2320    11.6360 cp         1 SJX       0.411500
      6 C11         29.2700    -8.2490    11.1040 ca         1 SJX      -0.156000
      7 C12         28.9950    -7.7730     9.8310 ca         1 SJX      -0.071000
      8 C13         27.9110    -8.2800     9.1390 ca         1 SJX      -0.165000
      9 C14         27.1190    -9.2520     9.7510 ca         1 SJX       0.365300
     10 C15         25.9250    -9.8210     9.0470 c3         1 SJX      -0.147400
     11 C16         29.9350    -9.8230    13.5550 ca         1 SJX      -0.095000
     12 C17         30.1260   -10.3850    14.8080 ca         1 SJX       0.127000
     13 C18         29.1000   -13.0030    16.9410 c          1 SJX       0.577200
     14 C2          30.0120   -10.8150    20.4170 ca         1 SJX       0.208900
     15 C20         27.6690   -15.4310    18.8370 c3         1 SJX      -0.088400
     16 C21         26.5110   -15.0080    17.9440 c3         1 SJX      -0.079400
     17 C22         25.1710   -15.4930    18.4760 c3         1 SJX       0.148800
     18 C23         29.5330   -12.8590    19.3180 ca         1 SJX       0.313900
     19 C3          29.7040   -11.4680    19.2200 ca         1 SJX      -0.309800
     20 C4          29.5550   -10.8320    17.9640 cc         1 SJX      -0.022200
     21 C5          29.2590   -11.5560    16.8620 cd         1 SJX      -0.171400
     22 C6          29.0770   -10.9430    15.5320 ca         1 SJX      -0.013800
     23 C7          27.8130   -10.9160    14.9430 ca         1 SJX      -0.084000
     24 C8          27.6050   -10.3620    13.6950 ca         1 SJX      -0.069000
     25 C9          28.6670    -9.8050    12.9820 cp         1 SJX      -0.131500
     26 N1          30.1450   -11.4300    21.5640 nb         1 SJX      -0.265000
     27 N2          27.3900    -9.7070    10.9670 nb         1 SJX      -0.679000
     28 N3          29.2310   -13.5860    18.2010 n          1 SJX      -0.362300
     29 N4          24.0860   -15.0920    17.5900 n8         1 SJX      -0.992200
     30 N5          29.6640   -13.5000    20.4680 nb         1 SJX      -0.312000
     31 H1          30.3330   -12.8420    23.5070 hn         1 SJX       0.514000
     32 H2          30.1300   -15.0720    23.9130 h1         1 SJX       0.044700
     33 H3          28.9480   -15.1620    22.6040 h1         1 SJX       0.044700
     34 H4          30.6650   -15.3870    22.2610 h1         1 SJX       0.044700
     35 H5          30.1000    -7.8470    11.6680 ha         1 SJX       0.125000
     36 H6          29.6200    -7.0080     9.3890 ha         1 SJX       0.119000
     37 H7          27.6720    -7.9290     8.1430 ha         1 SJX       0.123000
     38 H8          25.4530   -10.5940     9.6500 hc         1 SJX       0.052367
     39 H9          25.1860    -9.0450     8.8440 hc         1 SJX       0.052367
     40 H10         26.2050   -10.2550     8.0860 hc         1 SJX       0.052367
     41 H11         30.7890    -9.4280    13.0220 ha         1 SJX       0.127000
     42 H12         29.2320   -15.4720    17.3500 h1         1 SJX       0.073200
     43 H13         29.8150   -15.4090    19.0040 h1         1 SJX       0.073200
     44 H14         30.1530    -9.7380    20.4130 h4         1 SJX       0.025100
     45 H15         27.5230   -15.0380    19.8470 hc         1 SJX       0.047200
     46 H16         27.6720   -16.5210    18.9350 hc         1 SJX       0.047200
     47 H17         26.6560   -15.3970    16.9320 hc         1 SJX       0.054200
     48 H18         26.4830   -13.9170    17.8600 hc         1 SJX       0.054200
     49 H19         25.0480   -15.1390    19.5100 h1         1 SJX       0.023700
     50 H20         25.1820   -16.5850    18.5280 h1         1 SJX       0.023700
     51 H21         29.6770    -9.7560    17.9000 ha         1 SJX       0.194000
     52 H22         26.9750   -11.3360    15.4860 ha         1 SJX       0.124000
     53 H23         26.6120   -10.3570    13.2690 ha         1 SJX       0.138000
     54 H24         23.2090   -15.4490    17.9490 hn         1 SJX       0.390000
     55 H25         23.9950   -14.0830    17.6120 hn         1 SJX       0.390000
     56 C19         29.0490   -15.0350    18.3280 c3         1 SJX       0.098000
     57 CL          31.7360   -10.4130    15.4500 cl         1 SJX      -0.206000
@<TRIPOS>BOND
     1     1     2 1   
     2     1     4 1   
     3     1    31 1   
     4     2    32 1   
     5     2    33 1   
     6     2    34 1   
     7     3    13 2   
     8     4    26 ar  
     9     4    30 ar  
    10     5     6 ar  
    11     5    25 1   
    12     5    27 ar  
    13     6     7 ar  
    14     6    35 1   
    15     7     8 ar  
    16     7    36 1   
    17     8     9 ar  
    18     8    37 1   
    19     9    10 1   
    20     9    27 ar  
    21    10    38 1   
    22    10    39 1   
    23    10    40 1   
    24    11    12 ar  
    25    11    25 ar  
    26    11    41 1   
    27    12    22 ar  
    28    12    57 1   
    29    13    21 1   
    30    13    28 1   
    31    14    19 ar  
    32    14    26 ar  
    33    14    44 1   
    34    15    16 1   
    35    15    45 1   
    36    15    46 1   
    37    15    56 1   
    38    16    17 1   
    39    16    47 1   
    40    16    48 1   
    41    17    29 1   
    42    17    49 1   
    43    17    50 1   
    44    18    19 ar  
    45    18    28 1   
    46    18    30 ar  
    47    19    20 1   
    48    20    21 2   
    49    20    51 1   
    50    21    22 1   
    51    22    23 ar  
    52    23    24 ar  
    53    23    52 1   
    54    24    25 ar  
    55    24    53 1   
    56    28    56 1   
    57    29    54 1   
    58    29    55 1   
    59    42    56 1   
    60    43    56 1   
@<TRIPOS>SUBSTRUCTURE
     1 SJX         1 TEMP              0 ****  ****    0 ROOT
