@<TRIPOS>MOLECULE
SJY
   32    34     1     0     0
SMALL
No Charge or Current Charge


@<TRIPOS>ATOM
      1 C10          1.1790     4.1120    -8.6080 cc         1 SJY      -0.047000
      2 C13         -0.0920     2.4150    -7.2640 cc         1 SJY      -0.274000
      3 C15          1.5300     7.3250   -12.4400 cc         1 SJY       0.040600
      4 C17         -0.9690     7.4860   -12.5540 c          1 SJY       0.729000
      5 C20          2.3230     8.4130   -12.9910 ca         1 SJY      -0.100800
      6 C21          2.1450     9.1770   -14.1530 ca         1 SJY      -0.015000
      7 C02          3.0950    10.1890   -14.4380 ca         1 SJY      -0.130300
      8 C03          4.1850    10.4120   -13.5560 ca         1 SJY      -0.095000
      9 C04          4.3400     9.6320   -12.3900 ca         1 SJY      -0.128000
     10 C05          3.3840     8.6420   -12.1470 ca         1 SJY       0.074100
     11 O06          3.3200     7.7800   -11.1010 os         1 SJY      -0.179200
     12 C07          2.2100     6.9910   -11.2710 cd         1 SJY       0.079400
     13 C08          1.9190     5.9990   -10.2990 ch         1 SJY      -0.031300
     14 C09          1.6090     5.1290    -9.5010 cg         1 SJY      -0.138000
     15 C11          1.9660     3.4220    -7.7230 cd         1 SJY      -0.141000
     16 C12          1.2460     2.4610    -6.9610 cd         1 SJY      -0.131000
     17 S14         -0.4990     3.5820    -8.5230 ss         1 SJY       0.229000
     18 O18         -1.3190     8.4590   -13.2050 o          1 SJY      -0.717000
     19 O19         -1.4760     7.1670   -11.4890 o          1 SJY      -0.717000
     20 H1          -0.8680     1.7870    -6.8460 h4         1 SJY       0.139000
     21 H2           1.3000     8.9980   -14.8130 ha         1 SJY       0.131000
     22 H3           2.3630    11.9510   -15.4690 hc         1 SJY       0.030700
     23 H4           3.9160    11.3550   -16.0800 hc         1 SJY       0.030700
     24 H5           2.4220    10.4990   -16.4840 hc         1 SJY       0.030700
     25 H6           4.9100    11.1930   -13.7760 ha         1 SJY       0.095000
     26 H7           5.1680     9.7930   -11.7060 ha         1 SJY       0.115000
     27 H8           3.0330     3.5940    -7.6140 ha         1 SJY       0.137000
     28 H9           1.7100     1.8250    -6.2130 ha         1 SJY       0.122000
     29 H10          0.3700     6.7880   -14.1060 hc         1 SJY       0.041200
     30 H11          0.2300     5.6880   -12.6550 hc         1 SJY       0.041200
     31 C01          2.9410    11.0440   -15.6860 c3         1 SJY      -0.032800
     32 C16          0.2750     6.7220   -13.0170 c3         1 SJY      -0.187200
@<TRIPOS>BOND
     1     1    14 1   
     2     1    15 2   
     3     1    17 1   
     4     2    16 2   
     5     2    17 1   
     6     2    20 1   
     7     3     5 1   
     8     3    12 2   
     9     3    32 1   
    10     4    18 1   
    11     4    19 1   
    12     4    32 1   
    13     5     6 ar  
    14     5    10 ar  
    15     6     7 ar  
    16     6    21 1   
    17     7     8 ar  
    18     7    31 1   
    19     8     9 ar  
    20     8    25 1   
    21     9    10 ar  
    22     9    26 1   
    23    10    11 1   
    24    11    12 1   
    25    12    13 1   
    26    13    14 3   
    27    15    16 1   
    28    15    27 1   
    29    16    28 1   
    30    22    31 1   
    31    23    31 1   
    32    24    31 1   
    33    29    32 1   
    34    30    32 1   
@<TRIPOS>SUBSTRUCTURE
     1 SJY         1 TEMP              0 ****  ****    0 ROOT
