@<TRIPOS>MOLECULE
SJY
   32    34     1     0     0
SMALL
bcc


@<TRIPOS>ATOM
      1 C10          1.2800     3.9620    -8.7640 cc         1 SJY       0.097900
      2 C13          0.3560     1.9490    -7.6710 cc         1 SJY      -0.147100
      3 C15          1.4660     7.3260   -12.4490 cc         1 SJY       0.040600
      4 C17         -1.0360     7.8210   -12.5870 c          1 SJY       0.939600
      5 C20          2.2660     8.3770   -13.0060 ca         1 SJY      -0.100800
      6 C21          2.1150     9.2500   -14.0870 ca         1 SJY      -0.033000
      7 C02          3.1110    10.1750   -14.3510 ca         1 SJY      -0.130300
      8 C03          4.2490    10.2240   -13.5230 ca         1 SJY      -0.113000
      9 C04          4.4210     9.3750   -12.4440 ca         1 SJY      -0.146000
     10 C05          3.4080     8.4600   -12.2120 ca         1 SJY       0.074100
     11 O06          3.3640     7.5420   -11.2250 os         1 SJY      -0.179200
     12 C07          2.1830     6.8650   -11.3880 cd         1 SJY       0.079400
     13 C08          1.8940     5.8470   -10.4670 ch         1 SJY      -0.031300
     14 C09          1.6160     4.9720    -9.6800 cg         1 SJY      -0.138000
     15 C11          1.6440     3.8560    -7.4440 cd         1 SJY      -0.159000
     16 C12          1.1130     2.7020    -6.8230 cd         1 SJY      -0.149000
     17 S14          0.2840     2.6290    -9.2380 ss         1 SJY      -0.060800
     18 O18         -2.1440     7.4550   -13.0210 o          1 SJY      -0.822300
     19 O19         -0.7740     8.8430   -11.9300 o          1 SJY      -0.822300
     20 H1          -0.1660     1.0290    -7.4550 h4         1 SJY       0.157000
     21 H2           1.2340     9.2000   -14.7150 ha         1 SJY       0.149000
     22 H3           2.9700    12.1700   -15.1500 hc         1 SJY       0.030700
     23 H4           3.8410    11.0480   -16.1790 hc         1 SJY       0.030700
     24 H5           2.0850    10.9620   -16.0750 hc         1 SJY       0.030700
     25 H6           5.0190    10.9550   -13.7380 ha         1 SJY       0.113000
     26 H7           5.3020     9.4280   -11.8170 ha         1 SJY       0.133000
     27 H8           2.2650     4.5870    -6.9460 ha         1 SJY       0.155000
     28 H9           1.2820     2.4430    -5.7880 ha         1 SJY       0.140000
     29 H10          0.1680     6.7060   -14.0020 hc         1 SJY       0.041200
     30 H11         -0.0830     5.8780   -12.4860 hc         1 SJY       0.041200
     31 C01          2.9930    11.1360   -15.4990 c3         1 SJY      -0.032800
     32 C16          0.1420     6.8570   -12.9180 c3         1 SJY      -0.187200
@<TRIPOS>BOND
     1     1    14 1   
     2     1    15 2   
     3     1    17 1   
     4     2    16 2   
     5     2    17 1   
     6     2    20 1   
     7     3     5 1   
     8     3    12 2   
     9     3    32 1   
    10     4    18 1   
    11     4    19 1   
    12     4    32 1   
    13     5     6 ar  
    14     5    10 ar  
    15     6     7 ar  
    16     6    21 1   
    17     7     8 ar  
    18     7    31 1   
    19     8     9 ar  
    20     8    25 1   
    21     9    10 ar  
    22     9    26 1   
    23    10    11 1   
    24    11    12 1   
    25    12    13 1   
    26    13    14 3   
    27    15    16 1   
    28    15    27 1   
    29    16    28 1   
    30    22    31 1   
    31    23    31 1   
    32    24    31 1   
    33    29    32 1   
    34    30    32 1   
@<TRIPOS>SUBSTRUCTURE
     1 SJY         1 TEMP              0 ****  ****    0 ROOT
