@<TRIPOS>MOLECULE
SJZ
   42    44     1     0     0
SMALL
No Charge or Current Charge


@<TRIPOS>ATOM
      1 C25          0.7540     0.9120     2.2200 ca         1 SJZ      -0.090000
      2 C24          1.9600     1.5530     2.5270 ca         1 SJZ      -0.124000
      3 C23          3.0690     1.3860     1.6880 ca         1 SJZ      -0.105000
      4 C22          4.8930     1.5770    -0.8170 ca         1 SJZ      -0.100500
      5 C20          6.5640     0.1760    -1.8970 ca         1 SJZ      -0.118000
      6 C18          4.7610    -0.8410    -0.6170 ca         1 SJZ      -0.100500
      7 C19          5.9200    -0.9700    -1.4020 ca         1 SJZ      -0.116500
      8 C17          4.2210     0.4350    -0.3190 cp         1 SJZ      -0.018000
      9 C16          2.9960     0.5820     0.5260 cp         1 SJZ      -0.057000
     10 C21          6.0520     1.4500    -1.6020 ca         1 SJZ      -0.116500
     11 C14          1.7560    -0.0510     0.2050 ca         1 SJZ      -0.029300
     12 C13          0.6310     0.0980     1.0700 cp         1 SJZ      -0.004000
     13 C12         -0.6850    -0.5550     0.7940 cp         1 SJZ      -0.087000
     14 C11         -1.7980     0.2420     0.4370 ca         1 SJZ      -0.078000
     15 C02         -0.8640    -1.9580     0.8950 ca         1 SJZ       0.114100
     16 C03         -2.1160    -2.5340     0.6290 ca         1 SJZ      -0.208000
     17 C04         -3.2070    -1.7260     0.2650 ca         1 SJZ      -0.076000
     18 C05         -3.0580    -0.3280     0.1680 ca         1 SJZ      -0.029800
     19 C06         -4.1970     0.5590    -0.2110 ce         1 SJZ      -0.237200
     20 C07         -5.4920     0.2280    -0.5140 cf         1 SJZ      -0.215200
     21 C08         -6.5700     1.1940    -0.8850 c          1 SJZ       0.695200
     22 O09         -6.3080     2.3870    -0.9320 o          1 SJZ      -0.723000
     23 O10         -7.6760     0.7380    -1.1270 o          1 SJZ      -0.723000
     24 H251        -0.1020     1.0390     2.8790 ha         1 SJZ       0.120000
     25 H241         2.0370     2.1740     3.4170 ha         1 SJZ       0.107000
     26 H231         4.0050     1.8780     1.9430 ha         1 SJZ       0.104000
     27 H221         4.5030     2.5680    -0.5970 ha         1 SJZ       0.117500
     28 H201         7.4620     0.0760    -2.5040 ha         1 SJZ       0.104000
     29 H181         4.2780    -1.7340    -0.2280 ha         1 SJZ       0.117500
     30 H191         6.3200    -1.9570    -1.6230 ha         1 SJZ       0.106000
     31 H151         1.8830    -1.9050    -0.9340 hc         1 SJZ       0.045700
     32 H152         0.5910    -0.8280    -1.4820 hc         1 SJZ       0.045700
     33 H153         2.2530    -0.4590    -1.8890 hc         1 SJZ       0.045700
     34 H211         6.5520     2.3380    -1.9820 ha         1 SJZ       0.106000
     35 H111        -1.6700     1.3200     0.3630 ha         1 SJZ       0.120000
     36 H011        -0.1710    -3.6970     1.2930 ho         1 SJZ       0.451000
     37 H031        -2.2540    -3.6100     0.7060 ha         1 SJZ       0.099000
     38 H041        -4.1650    -2.1970     0.0650 ha         1 SJZ       0.119000
     39 H061        -3.9340     1.6190    -0.2450 ha         1 SJZ       0.191000
     40 H071        -5.7990    -0.8140    -0.4940 ha         1 SJZ       0.141000
     41 C15          1.6140    -0.8550    -1.0920 c3         1 SJZ      -0.048800
     42 O01          0.1630    -2.7760     1.2680 oh         1 SJZ      -0.540100
@<TRIPOS>BOND
     1     1     2 ar  
     2     1    12 ar  
     3     1    24 1   
     4     2     3 ar  
     5     2    25 1   
     6     3     9 ar  
     7     3    26 1   
     8     4     8 ar  
     9     4    10 ar  
    10     4    27 1   
    11     5     7 ar  
    12     5    10 ar  
    13     5    28 1   
    14     6     7 ar  
    15     6     8 ar  
    16     6    29 1   
    17     7    30 1   
    18     8     9 1   
    19     9    11 ar  
    20    10    34 1   
    21    11    12 ar  
    22    11    41 1   
    23    12    13 1   
    24    13    14 ar  
    25    13    15 ar  
    26    14    18 ar  
    27    14    35 1   
    28    15    16 ar  
    29    15    42 1   
    30    16    17 ar  
    31    16    37 1   
    32    17    18 ar  
    33    17    38 1   
    34    18    19 1   
    35    19    20 2   
    36    19    39 1   
    37    20    21 1   
    38    20    40 1   
    39    21    22 1   
    40    21    23 1   
    41    31    41 1   
    42    32    41 1   
    43    33    41 1   
    44    36    42 1   
@<TRIPOS>SUBSTRUCTURE
     1 SJZ         1 TEMP              0 ****  ****    0 ROOT
