@<TRIPOS>MOLECULE
SJZ
   42    44     1     0     0
SMALL
abcg2


@<TRIPOS>ATOM
      1 C25          0.7480     0.9020     2.1910 ca         1 SJZ      -0.090000
      2 C24          1.9400     1.5450     2.4840 ca         1 SJZ      -0.124000
      3 C23          3.0280     1.3700     1.6480 ca         1 SJZ      -0.105000
      4 C22          4.8040     1.5470    -0.8200 ca         1 SJZ      -0.100500
      5 C20          6.4850     0.1710    -1.8550 ca         1 SJZ      -0.118000
      6 C18          4.6840    -0.8390    -0.6170 ca         1 SJZ      -0.100500
      7 C19          5.8420    -0.9620    -1.3710 ca         1 SJZ      -0.116500
      8 C17          4.1480     0.4170    -0.3320 cp         1 SJZ      -0.018000
      9 C16          2.9380     0.5640     0.5120 cp         1 SJZ      -0.057000
     10 C21          5.9610     1.4260    -1.5770 ca         1 SJZ      -0.116500
     11 C14          1.7270    -0.0710     0.1970 ca         1 SJZ      -0.029300
     12 C13          0.6350     0.0940     1.0630 cp         1 SJZ      -0.004000
     13 C12         -0.6740    -0.5460     0.7870 cp         1 SJZ      -0.087000
     14 C11         -1.7810     0.2270     0.4580 ca         1 SJZ      -0.078000
     15 C02         -0.8330    -1.9320     0.8770 ca         1 SJZ       0.114100
     16 C03         -2.0780    -2.5050     0.6180 ca         1 SJZ      -0.208000
     17 C04         -3.1580    -1.7140     0.2770 ca         1 SJZ      -0.076000
     18 C05         -3.0350    -0.3250     0.1900 ca         1 SJZ      -0.029800
     19 C06         -4.1400     0.5630    -0.1700 ce         1 SJZ      -0.237200
     20 C07         -5.3760     0.2130    -0.5320 cf         1 SJZ      -0.215200
     21 C08         -6.4470     1.2150    -0.8910 c          1 SJZ       0.695200
     22 O09         -6.1530     2.4270    -0.8480 o          1 SJZ      -0.723000
     23 O10         -7.5540     0.7290    -1.2070 o          1 SJZ      -0.723000
     24 H251        -0.1060     1.0220     2.8460 ha         1 SJZ       0.120000
     25 H241         2.0220     2.1710     3.3630 ha         1 SJZ       0.107000
     26 H231         3.9690     1.8530     1.8800 ha         1 SJZ       0.104000
     27 H221         4.3990     2.5310    -0.6150 ha         1 SJZ       0.117500
     28 H201         7.3880     0.0750    -2.4440 ha         1 SJZ       0.104000
     29 H181         4.2020    -1.7300    -0.2330 ha         1 SJZ       0.117500
     30 H191         6.2470    -1.9450    -1.5730 ha         1 SJZ       0.106000
     31 H151         1.8080    -1.9240    -0.9110 hc         1 SJZ       0.045700
     32 H152         0.5500    -0.8230    -1.4380 hc         1 SJZ       0.045700
     33 H153         2.2290    -0.5050    -1.8550 hc         1 SJZ       0.045700
     34 H211         6.4540     2.3160    -1.9490 ha         1 SJZ       0.106000
     35 H111        -1.6550     1.3020     0.3930 ha         1 SJZ       0.120000
     36 H011         0.0210    -3.6050     1.2130 ho         1 SJZ       0.451000
     37 H031        -2.2030    -3.5800     0.6900 ha         1 SJZ       0.099000
     38 H041        -4.1080    -2.1940     0.0810 ha         1 SJZ       0.119000
     39 H061        -3.9090     1.6250    -0.1390 ha         1 SJZ       0.191000
     40 H071        -5.6600    -0.8350    -0.5880 ha         1 SJZ       0.141000
     41 C15          1.5730    -0.8700    -1.0670 c3         1 SJZ      -0.048800
     42 O01          0.2380    -2.6660     1.2270 oh         1 SJZ      -0.540100
@<TRIPOS>BOND
     1     1     2 ar  
     2     1    12 ar  
     3     1    24 1   
     4     2     3 ar  
     5     2    25 1   
     6     3     9 ar  
     7     3    26 1   
     8     4     8 ar  
     9     4    10 ar  
    10     4    27 1   
    11     5     7 ar  
    12     5    10 ar  
    13     5    28 1   
    14     6     7 ar  
    15     6     8 ar  
    16     6    29 1   
    17     7    30 1   
    18     8     9 1   
    19     9    11 ar  
    20    10    34 1   
    21    11    12 ar  
    22    11    41 1   
    23    12    13 1   
    24    13    14 ar  
    25    13    15 ar  
    26    14    18 ar  
    27    14    35 1   
    28    15    16 ar  
    29    15    42 1   
    30    16    17 ar  
    31    16    37 1   
    32    17    18 ar  
    33    17    38 1   
    34    18    19 1   
    35    19    20 2   
    36    19    39 1   
    37    20    21 1   
    38    20    40 1   
    39    21    22 1   
    40    21    23 1   
    41    31    41 1   
    42    32    41 1   
    43    33    41 1   
    44    36    42 1   
@<TRIPOS>SUBSTRUCTURE
     1 SJZ         1 TEMP              0 ****  ****    0 ROOT
