@<TRIPOS>MOLECULE
SK0
   36    38     1     0     0
SMALL
No Charge or Current Charge


@<TRIPOS>ATOM
      1 C01         89.2790   107.8200    78.4570 ca         1 SK0      -0.058300
      2 C02         89.5800   107.5110    79.8150 ca         1 SK0      -0.062300
      3 C03         88.4100   108.9030    78.1780 ca         1 SK0      -0.109000
      4 C04         89.0100   108.3000    80.8540 ca         1 SK0       0.074000
      5 C05         87.8520   109.6650    79.2080 ca         1 SK0       0.126100
      6 C06         88.1480   109.3720    80.5470 ca         1 SK0       0.053100
      7 C07         89.8950   106.9950    77.3030 c3         1 SK0      -0.004100
      8 C08         91.4430   107.1410    77.2550 c3         1 SK0       0.167800
      9 C09         90.5230   106.3400    80.1420 c3         1 SK0      -0.069100
     10 C10         91.9710   106.5820    79.6670 c3         1 SK0       0.163800
     11 C11         89.2520   107.2870    75.9370 ca         1 SK0      -0.078300
     12 C12         88.1410   106.5260    75.5170 ca         1 SK0      -0.104500
     13 C13         89.7320   108.3170    75.0960 ca         1 SK0      -0.104500
     14 C14         87.5290   106.7790    74.2770 ca         1 SK0      -0.109000
     15 C15         89.1180   108.5690    73.8570 ca         1 SK0      -0.109000
     16 C16         88.0180   107.7990    73.4460 ca         1 SK0      -0.108000
     17 N01         92.1390   106.2690    78.2320 n7         1 SK0      -0.861400
     18 O01         87.0180   110.7060    78.9180 oh         1 SK0      -0.531100
     19 O02         87.5940   110.1380    81.5460 oh         1 SK0      -0.553100
     20 Cl01        89.3580   107.9940    82.5660 cl         1 SK0      -0.215000
     21 H1          88.1550   109.1750    77.1580 ha         1 SK0       0.145000
     22 H2          89.6900   105.9360    77.5020 hc         1 SK0       0.056700
     23 H3          91.7790   106.8640    76.2450 h1         1 SK0       0.059700
     24 H4          91.7150   108.1960    77.4030 h1         1 SK0       0.059700
     25 H5          90.1410   105.4060    79.7120 hc         1 SK0       0.056700
     26 H6          90.5680   106.1370    81.2150 hc         1 SK0       0.056700
     27 H7          92.6330   105.9320    80.2560 h1         1 SK0       0.056200
     28 H8          92.2610   107.6190    79.8870 h1         1 SK0       0.056200
     29 H9          87.7480   105.7360    76.1530 ha         1 SK0       0.113500
     30 H10         90.5730   108.9350    75.4000 ha         1 SK0       0.113500
     31 H11         86.6740   106.1850    73.9630 ha         1 SK0       0.114000
     32 H12         89.4930   109.3640    73.2160 ha         1 SK0       0.114000
     33 H13         87.5430   107.9950    72.4870 ha         1 SK0       0.113000
     34 H14         91.8460   105.2970    78.0710 hn         1 SK0       0.408000
     35 H16         86.7540   111.0910    79.7840 ho         1 SK0       0.484000
     36 H17         87.9120   109.7900    82.4110 ho         1 SK0       0.487000
@<TRIPOS>BOND
     1     1     2 ar  
     2     1     3 ar  
     3     1     7 1   
     4     2     4 ar  
     5     2     9 1   
     6     3     5 ar  
     7     3    21 1   
     8     4     6 ar  
     9     4    20 1   
    10     5     6 ar  
    11     5    18 1   
    12     6    19 1   
    13     7     8 1   
    14     7    11 1   
    15     7    22 1   
    16     8    17 1   
    17     8    23 1   
    18     8    24 1   
    19     9    10 1   
    20     9    25 1   
    21     9    26 1   
    22    10    17 1   
    23    10    27 1   
    24    10    28 1   
    25    11    12 ar  
    26    11    13 ar  
    27    12    14 ar  
    28    12    29 1   
    29    13    15 ar  
    30    13    30 1   
    31    14    16 ar  
    32    14    31 1   
    33    15    16 ar  
    34    15    32 1   
    35    16    33 1   
    36    17    34 1   
    37    18    35 1   
    38    19    36 1   
@<TRIPOS>SUBSTRUCTURE
     1 SK0         1 TEMP              0 ****  ****    0 ROOT
