@<TRIPOS>MOLECULE
SK0
   36    38     1     0     0
SMALL
abcg2


@<TRIPOS>ATOM
      1 C01         89.2780   107.8190    78.4500 ca         1 SK0      -0.058300
      2 C02         89.5600   107.4710    79.7770 ca         1 SK0      -0.062300
      3 C03         88.4560   108.9080    78.1810 ca         1 SK0      -0.109000
      4 C04         88.9950   108.2580    80.7810 ca         1 SK0       0.074000
      5 C05         87.9020   109.6720    79.1940 ca         1 SK0       0.126100
      6 C06         88.1720   109.3500    80.5220 ca         1 SK0       0.053100
      7 C07         89.9060   107.0150    77.3210 c3         1 SK0      -0.004100
      8 C08         91.4460   107.1880    77.2930 c3         1 SK0       0.167800
      9 C09         90.4710   106.3160    80.0850 c3         1 SK0      -0.069100
     10 C10         91.9190   106.5450    79.6270 c3         1 SK0       0.163800
     11 C11         89.2620   107.2940    75.9840 ca         1 SK0      -0.078300
     12 C12         88.1580   106.5420    75.5880 ca         1 SK0      -0.104500
     13 C13         89.7180   108.2980    75.1320 ca         1 SK0      -0.104500
     14 C14         87.5230   106.7830    74.3770 ca         1 SK0      -0.109000
     15 C15         89.0870   108.5420    73.9180 ca         1 SK0      -0.109000
     16 C16         87.9870   107.7860    73.5370 ca         1 SK0      -0.108000
     17 N01         92.1970   106.3690    78.2180 n7         1 SK0      -0.861400
     18 O01         87.1120   110.7150    78.8670 oh         1 SK0      -0.531100
     19 O02         87.6090   110.1340    81.4620 oh         1 SK0      -0.553100
     20 CL01        89.2970   107.9240    82.4660 cl         1 SK0      -0.215000
     21 H1          88.2260   109.1830    77.1600 ha         1 SK0       0.145000
     22 H2          89.7210   105.9540    77.5310 hc         1 SK0       0.056700
     23 H3          91.8030   106.9390    76.2900 h1         1 SK0       0.059700
     24 H4          91.7020   108.2380    77.4630 h1         1 SK0       0.059700
     25 H5          90.0890   105.4030    79.6170 hc         1 SK0       0.056700
     26 H6          90.4800   106.1150    81.1560 hc         1 SK0       0.056700
     27 H7          92.5630   105.8490    80.1700 h1         1 SK0       0.056200
     28 H8          92.2310   107.5510    79.9260 h1         1 SK0       0.056200
     29 H9          87.7880   105.7570    76.2370 ha         1 SK0       0.113500
     30 H10         90.5700   108.9050    75.4130 ha         1 SK0       0.113500
     31 H11         86.6680   106.1850    74.0890 ha         1 SK0       0.114000
     32 H12         89.4570   109.3260    73.2700 ha         1 SK0       0.114000
     33 H13         87.4950   107.9770    72.5910 ha         1 SK0       0.113000
     34 H14         92.0700   105.3940    77.9740 hn         1 SK0       0.408000
     35 H16         86.7790   111.1530    79.6590 ho         1 SK0       0.484000
     36 H17         87.7980   109.8130    82.3530 ho         1 SK0       0.487000
@<TRIPOS>BOND
     1     1     2 ar  
     2     1     3 ar  
     3     1     7 1   
     4     2     4 ar  
     5     2     9 1   
     6     3     5 ar  
     7     3    21 1   
     8     4     6 ar  
     9     4    20 1   
    10     5     6 ar  
    11     5    18 1   
    12     6    19 1   
    13     7     8 1   
    14     7    11 1   
    15     7    22 1   
    16     8    17 1   
    17     8    23 1   
    18     8    24 1   
    19     9    10 1   
    20     9    25 1   
    21     9    26 1   
    22    10    17 1   
    23    10    27 1   
    24    10    28 1   
    25    11    12 ar  
    26    11    13 ar  
    27    12    14 ar  
    28    12    29 1   
    29    13    15 ar  
    30    13    30 1   
    31    14    16 ar  
    32    14    31 1   
    33    15    16 ar  
    34    15    32 1   
    35    16    33 1   
    36    17    34 1   
    37    18    35 1   
    38    19    36 1   
@<TRIPOS>SUBSTRUCTURE
     1 SK0         1 TEMP              0 ****  ****    0 ROOT
