@<TRIPOS>MOLECULE
SK1
   59    60     1     0     0
SMALL
No Charge or Current Charge


@<TRIPOS>ATOM
      1 N3          -2.8840     0.0250    -0.9170 ns         1 SK1      -0.497900
      2 N5          -8.5360    -2.2610     3.1950 nv         1 SK1      -1.076200
      3 N4          -9.3760    -0.4450     2.1660 n2         1 SK1      -0.824100
      4 C14         -7.2140    -1.2700     1.3860 ca         1 SK1      -0.132900
      5 C13         -7.2410    -0.5730     0.1550 ca         1 SK1      -0.081000
      6 C12         -6.1120    -0.5400    -0.6810 ca         1 SK1      -0.104000
      7 C17         -4.9250    -1.1920    -0.3000 ca         1 SK1      -0.106300
      8 C16         -4.8780    -1.8660     0.9330 ca         1 SK1      -0.104000
      9 C15         -6.0070    -1.9010     1.7710 ca         1 SK1      -0.081000
     10 C11         -3.7020    -1.1500    -1.2020 c3         1 SK1       0.151300
     11 C10         -1.7330     0.3530    -1.5980 c          1 SK1       0.590100
     12 O5          -1.3060    -0.3480    -2.5080 o          1 SK1      -0.620100
     13 C8          -1.0270     1.6580    -1.1250 c3         1 SK1       0.038700
     14 N2           0.3050     1.7810    -1.7590 ns         1 SK1      -0.489900
     15 C7           1.3410     2.5660    -1.2860 c          1 SK1       0.593100
     16 O4           1.2210     3.2290    -0.2620 o          1 SK1      -0.593100
     17 C5           2.6600     2.5170    -2.1370 c3         1 SK1       0.147500
     18 C6           3.0180     3.9300    -2.6800 c3         1 SK1       0.163600
     19 O3           3.5960     4.7650    -1.6560 oh         1 SK1      -0.655000
     20 N1           3.8490     1.9220    -1.4360 n7         1 SK1      -0.886300
     21 S1           3.7300     0.4070    -0.7560 s6         1 SK1       1.183100
     22 O1           3.3660    -0.5000    -1.8470 o          1 SK1      -0.529000
     23 O2           2.8780     0.5480     0.4240 o          1 SK1      -0.529000
     24 C1           5.4310     0.0850    -0.2620 c3         1 SK1      -0.249100
     25 C4           5.6470    -1.2760     0.3900 ca         1 SK1      -0.082300
     26 C19          5.9890    -2.3930    -0.3970 ca         1 SK1      -0.084500
     27 C20          6.1890    -3.6480     0.2040 ca         1 SK1      -0.110000
     28 C21          6.0490    -3.7930     1.5950 ca         1 SK1      -0.100000
     29 C2           5.7090    -2.6810     2.3840 ca         1 SK1      -0.110000
     30 C3           5.5090    -1.4260     1.7830 ca         1 SK1      -0.084500
     31 C22         -1.8870     2.9130    -1.4070 c3         1 SK1      -0.110100
     32 H3          -3.1790     0.6470    -0.1740 hn         1 SK1       0.327500
     33 H5N1        -7.9220    -3.0520     3.0440 hn         1 SK1       0.462000
     34 H5N2        -9.4800    -2.5000     3.4760 hn         1 SK1       0.462000
     35 H4          -9.9610    -0.5180     3.0060 hn         1 SK1       0.372400
     36 H13         -8.1450    -0.0580    -0.1630 ha         1 SK1       0.130500
     37 H12         -6.1590    -0.0030    -1.6260 ha         1 SK1       0.119500
     38 H16         -3.9610    -2.3600     1.2490 ha         1 SK1       0.119500
     39 H15         -5.9280    -2.4130     2.7270 ha         1 SK1       0.130500
     40 H111        -4.0160    -1.1220    -2.2540 h1         1 SK1       0.059700
     41 H112        -3.0960    -2.0530    -1.0520 h1         1 SK1       0.059700
     42 H8          -0.8880     1.5630    -0.0390 h1         1 SK1       0.086700
     43 H2           0.4850     1.2210    -2.5860 hn         1 SK1       0.335500
     44 H5           2.4260     1.9050    -3.0190 h1         1 SK1       0.088700
     45 H6C1         3.7330     3.8110    -3.5050 h1         1 SK1       0.033700
     46 H6C2         2.1150     4.3980    -3.0960 h1         1 SK1       0.033700
     47 HA           3.8550     5.6100    -2.0870 ho         1 SK1       0.452000
     48 H1           4.0370     2.4990    -0.6150 hn         1 SK1       0.512000
     49 H1C1         6.0300     0.1760    -1.1740 h1         1 SK1       0.098200
     50 H1C2         5.7090     0.8890     0.4270 h1         1 SK1       0.098200
     51 H19          6.0990    -2.2900    -1.4740 ha         1 SK1       0.119000
     52 H20          6.4520    -4.5080    -0.4080 ha         1 SK1       0.115500
     53 H21          6.2040    -4.7650     2.0600 ha         1 SK1       0.113000
     54 HC           5.6010    -2.7920     3.4610 ha         1 SK1       0.115500
     55 HB           5.2460    -0.5710     2.4020 ha         1 SK1       0.119000
     56 H221        -1.3880     3.8190    -1.0430 hc         1 SK1       0.051367
     57 H222        -2.0630     3.0280    -2.4840 hc         1 SK1       0.051367
     58 H223        -2.8600     2.8440    -0.9070 hc         1 SK1       0.051367
     59 C18         -8.4180    -1.2700     2.2840 ce         1 SK1       0.657800
@<TRIPOS>BOND
     1     1    10 1   
     2     1    11 1   
     3     1    32 1   
     4     2    33 1   
     5     2    34 1   
     6     2    59 1   
     7     3    35 1   
     8     3    59 2   
     9     4     5 ar  
    10     4     9 ar  
    11     4    59 1   
    12     5     6 ar  
    13     5    36 1   
    14     6     7 ar  
    15     6    37 1   
    16     7     8 ar  
    17     7    10 1   
    18     8     9 ar  
    19     8    38 1   
    20     9    39 1   
    21    10    40 1   
    22    10    41 1   
    23    11    12 2   
    24    11    13 1   
    25    13    14 1   
    26    13    31 1   
    27    13    42 1   
    28    14    15 1   
    29    14    43 1   
    30    15    16 2   
    31    15    17 1   
    32    17    18 1   
    33    17    20 1   
    34    17    44 1   
    35    18    19 1   
    36    18    45 1   
    37    18    46 1   
    38    19    47 1   
    39    20    21 1   
    40    20    48 1   
    41    21    22 2   
    42    21    23 2   
    43    21    24 1   
    44    24    25 1   
    45    24    49 1   
    46    24    50 1   
    47    25    26 ar  
    48    25    30 ar  
    49    26    27 ar  
    50    26    51 1   
    51    27    28 ar  
    52    27    52 1   
    53    28    29 ar  
    54    28    53 1   
    55    29    30 ar  
    56    29    54 1   
    57    30    55 1   
    58    31    56 1   
    59    31    57 1   
    60    31    58 1   
@<TRIPOS>SUBSTRUCTURE
     1 SK1         1 TEMP              0 ****  ****    0 ROOT
