@<TRIPOS>MOLECULE
SK1
   59    60     1     0     0
SMALL
abcg2


@<TRIPOS>ATOM
      1 N3          -3.1780     0.5240    -1.1990 ns         1 SK1      -0.497900
      2 N5          -8.2520    -3.1420     2.4590 nv         1 SK1      -1.076200
      3 N4          -8.6180    -0.8650     2.9390 n2         1 SK1      -0.824100
      4 C14         -7.0670    -1.4390     1.2250 ca         1 SK1      -0.132900
      5 C13         -7.1230    -0.1770     0.6360 ca         1 SK1      -0.081000
      6 C12         -6.2140     0.1850    -0.3430 ca         1 SK1      -0.104000
      7 C17         -5.2190    -0.7000    -0.7520 ca         1 SK1      -0.106300
      8 C16         -5.1540    -1.9530    -0.1550 ca         1 SK1      -0.104000
      9 C15         -6.0700    -2.3220     0.8200 ca         1 SK1      -0.081000
     10 C11         -4.2180    -0.2970    -1.7970 c3         1 SK1       0.151300
     11 C10         -2.1170     0.9450    -1.8930 c          1 SK1       0.590100
     12 O5          -1.9160     0.6410    -3.0610 o          1 SK1      -0.620100
     13 C8          -1.1840     1.8900    -1.1450 c3         1 SK1       0.038700
     14 N2           0.1480     1.7030    -1.6690 ns         1 SK1      -0.489900
     15 C7           1.2570     2.0190    -0.9880 c          1 SK1       0.593100
     16 O4           1.2580     2.4290     0.1600 o          1 SK1      -0.593100
     17 C5           2.5570     1.8310    -1.7800 c3         1 SK1       0.147500
     18 C6           2.6870     2.9030    -2.8530 c3         1 SK1       0.163600
     19 O3           2.6410     4.1570    -2.2210 oh         1 SK1      -0.655000
     20 N1           3.7200     1.8900    -0.9190 n7         1 SK1      -0.886300
     21 S1           3.9670     0.6900     0.1920 s6         1 SK1       1.183100
     22 O1           2.8870    -0.2820     0.0830 o          1 SK1      -0.529000
     23 O2           4.2660     1.2920     1.4830 o          1 SK1      -0.529000
     24 C1           5.4680    -0.0930    -0.4110 c3         1 SK1      -0.249100
     25 C4           5.8300    -1.2430     0.4740 ca         1 SK1      -0.082300
     26 C19          5.3250    -2.5140     0.2140 ca         1 SK1      -0.084500
     27 C20          5.6410    -3.5790     1.0450 ca         1 SK1      -0.110000
     28 C21          6.4610    -3.3810     2.1490 ca         1 SK1      -0.100000
     29 C2           6.9650    -2.1150     2.4160 ca         1 SK1      -0.110000
     30 C3           6.6470    -1.0500     1.5850 ca         1 SK1      -0.084500
     31 C22         -1.6730     3.3290    -1.3180 c3         1 SK1      -0.110100
     32 H3          -3.2750     0.7860    -0.2310 hn         1 SK1       0.327500
     33 H5N1        -8.0980    -3.7620     1.6820 hn         1 SK1       0.462000
     34 H5N2        -9.0200    -3.4210     3.0500 hn         1 SK1       0.462000
     35 H4          -9.2940    -1.2400     3.6000 hn         1 SK1       0.372400
     36 H13         -7.8920     0.5190     0.9430 ha         1 SK1       0.130500
     37 H12         -6.2850     1.1650    -0.7990 ha         1 SK1       0.119500
     38 H16         -4.3830    -2.6520    -0.4540 ha         1 SK1       0.119500
     39 H15         -5.9810    -3.3030     1.2700 ha         1 SK1       0.130500
     40 H111        -4.7130     0.2580    -2.5990 h1         1 SK1       0.059700
     41 H112        -3.7700    -1.1850    -2.2470 h1         1 SK1       0.059700
     42 H8          -1.1770     1.6390    -0.0820 h1         1 SK1       0.086700
     43 H2           0.2180     1.3840    -2.6240 hn         1 SK1       0.335500
     44 H5           2.5390     0.8680    -2.2940 h1         1 SK1       0.088700
     45 H6C1         3.6290     2.7430    -3.3900 h1         1 SK1       0.033700
     46 H6C2         1.8760     2.7770    -3.5790 h1         1 SK1       0.033700
     47 HA           2.8340     4.8370    -2.8730 ho         1 SK1       0.452000
     48 H1           3.9040     2.8080    -0.5270 hn         1 SK1       0.512000
     49 H1C1         5.2650    -0.4050    -1.4370 h1         1 SK1       0.098200
     50 H1C2         6.2360     0.6810    -0.4310 h1         1 SK1       0.098200
     51 H19          4.6880    -2.6750    -0.6470 ha         1 SK1       0.119000
     52 H20          5.2480    -4.5640     0.8310 ha         1 SK1       0.115500
     53 H21          6.7100    -4.2120     2.7960 ha         1 SK1       0.113000
     54 HC           7.6060    -1.9550     3.2740 ha         1 SK1       0.115500
     55 HB           7.0450    -0.0650     1.7960 ha         1 SK1       0.119000
     56 H221        -1.0180     4.0140    -0.7830 hc         1 SK1       0.051367
     57 H222        -1.6800     3.6100    -2.3720 hc         1 SK1       0.051367
     58 H223        -2.6820     3.4500    -0.9230 hc         1 SK1       0.051367
     59 C18         -8.0620    -1.8030     2.2730 ce         1 SK1       0.657800
@<TRIPOS>BOND
     1     1    10 1   
     2     1    11 1   
     3     1    32 1   
     4     2    33 1   
     5     2    34 1   
     6     2    59 1   
     7     3    35 1   
     8     3    59 2   
     9     4     5 ar  
    10     4     9 ar  
    11     4    59 1   
    12     5     6 ar  
    13     5    36 1   
    14     6     7 ar  
    15     6    37 1   
    16     7     8 ar  
    17     7    10 1   
    18     8     9 ar  
    19     8    38 1   
    20     9    39 1   
    21    10    40 1   
    22    10    41 1   
    23    11    12 2   
    24    11    13 1   
    25    13    14 1   
    26    13    31 1   
    27    13    42 1   
    28    14    15 1   
    29    14    43 1   
    30    15    16 2   
    31    15    17 1   
    32    17    18 1   
    33    17    20 1   
    34    17    44 1   
    35    18    19 1   
    36    18    45 1   
    37    18    46 1   
    38    19    47 1   
    39    20    21 1   
    40    20    48 1   
    41    21    22 2   
    42    21    23 2   
    43    21    24 1   
    44    24    25 1   
    45    24    49 1   
    46    24    50 1   
    47    25    26 ar  
    48    25    30 ar  
    49    26    27 ar  
    50    26    51 1   
    51    27    28 ar  
    52    27    52 1   
    53    28    29 ar  
    54    28    53 1   
    55    29    30 ar  
    56    29    54 1   
    57    30    55 1   
    58    31    56 1   
    59    31    57 1   
    60    31    58 1   
@<TRIPOS>SUBSTRUCTURE
     1 SK1         1 TEMP              0 ****  ****    0 ROOT
