@<TRIPOS>MOLECULE
SK2
   49    51     1     0     0
SMALL
abcg2


@<TRIPOS>ATOM
      1 O6          -8.2760    47.1370    47.0990 o          1 SK2      -0.702533
      2 S1          -8.6990    48.3560    47.7860 s6         1 SK2       1.389700
      3 O4          -7.8680    48.6710    48.9450 o          1 SK2      -0.702533
      4 O5          -8.9370    49.4870    46.8950 o          1 SK2      -0.702533
      5 N3         -10.2510    48.0810    48.4070 nu         1 SK2      -0.900100
      6 C15        -10.6060    46.9690    49.1790 ca         1 SK2       0.367000
      7 C16         -9.6780    46.2400    49.9300 ca         1 SK2      -0.144000
      8 C14        -11.9600    46.6140    49.2520 ca         1 SK2      -0.181000
      9 C13        -12.3730    45.5710    50.0640 ca         1 SK2      -0.087300
     10 C12        -13.8190    45.1740    50.1630 c6         1 SK2       0.164300
     11 N2         -14.1960    44.9030    51.5660 n          1 SK2      -0.411800
     12 C4         -13.2030    44.3870    52.5100 c6         1 SK2       0.045700
     13 C5         -12.7010    45.4280    53.5190 c          1 SK2       0.598100
     14 O1         -12.0270    45.0620    54.4850 o          1 SK2      -0.631100
     15 N1         -13.0010    46.7080    53.2800 ns         1 SK2      -0.485900
     16 C6         -12.5380    47.7920    54.1280 c3         1 SK2       0.100300
     17 C3         -12.0030    43.8050    51.7430 c6         1 SK2      -0.017100
     18 C2         -11.4480    44.8510    50.8230 ca         1 SK2      -0.154300
     19 C1         -10.1060    45.2000    50.7460 ca         1 SK2      -0.058000
     20 C7         -15.4950    44.8980    51.9640 c          1 SK2       0.626100
     21 O3         -15.8650    44.6450    53.1020 o          1 SK2      -0.552000
     22 O2         -16.3340    45.2120    50.9590 os         1 SK2      -0.457100
     23 C8         -17.7450    45.2840    51.3000 c3         1 SK2       0.228900
     24 C11        -18.4860    45.6310    50.0450 ca         1 SK2      -0.097300
     25 C19        -18.7200    46.9640    49.7080 ca         1 SK2      -0.083500
     26 C9         -19.3810    47.2870    48.5280 ca         1 SK2      -0.116500
     27 C18        -18.9260    44.6240    49.1850 ca         1 SK2      -0.083500
     28 C10        -19.5870    44.9440    48.0050 ca         1 SK2      -0.116500
     29 C17        -19.8150    46.2770    47.6740 ca         1 SK2      -0.101000
     30 HN3        -10.9570    48.3820    47.7490 hn         1 SK2       0.464000
     31 H16         -8.6310    46.5040    49.8960 ha         1 SK2       0.154000
     32 H14        -12.6890    47.1780    48.6790 ha         1 SK2       0.105000
     33 H121       -14.0030    44.2760    49.5610 h1         1 SK2       0.054700
     34 H122       -14.4570    45.9640    49.7790 h1         1 SK2       0.054700
     35 H4         -13.6690    43.6010    53.1020 h1         1 SK2       0.087700
     36 HN1        -13.5600    46.9270    52.4720 hn         1 SK2       0.327500
     37 H61        -11.4480    47.7980    54.1840 h1         1 SK2       0.038367
     38 H62        -12.8790    48.7320    53.7020 h1         1 SK2       0.038367
     39 H63        -12.9350    47.6930    55.1400 h1         1 SK2       0.038367
     40 H31        -12.3520    42.9310    51.1840 hc         1 SK2       0.060200
     41 H32        -11.2580    43.4640    52.4600 hc         1 SK2       0.060200
     42 H1          -9.3790    44.6590    51.3400 ha         1 SK2       0.107000
     43 H81        -17.8780    46.0440    52.0690 h1         1 SK2       0.055700
     44 H82        -18.0560    44.3180    51.6940 h1         1 SK2       0.055700
     45 H19        -18.3850    47.7490    50.3740 ha         1 SK2       0.115500
     46 H9         -19.5600    48.3250    48.2760 ha         1 SK2       0.112000
     47 H18        -18.7510    43.5870    49.4450 ha         1 SK2       0.115500
     48 H10        -19.9280    44.1560    47.3460 ha         1 SK2       0.112000
     49 H17        -20.3320    46.5280    46.7560 ha         1 SK2       0.110000
@<TRIPOS>BOND
     1     1     2 1   
     2     2     3 1   
     3     2     4 1   
     4     2     5 1   
     5     5     6 1   
     6     5    30 1   
     7     6     7 ar  
     8     6     8 ar  
     9     7    19 ar  
    10     7    31 1   
    11     8     9 ar  
    12     8    32 1   
    13     9    10 1   
    14     9    18 ar  
    15    10    11 1   
    16    10    33 1   
    17    10    34 1   
    18    11    12 1   
    19    11    20 1   
    20    12    13 1   
    21    12    17 1   
    22    12    35 1   
    23    13    14 2   
    24    13    15 1   
    25    15    16 1   
    26    15    36 1   
    27    16    37 1   
    28    16    38 1   
    29    16    39 1   
    30    17    18 1   
    31    17    40 1   
    32    17    41 1   
    33    18    19 ar  
    34    19    42 1   
    35    20    21 2   
    36    20    22 1   
    37    22    23 1   
    38    23    24 1   
    39    23    43 1   
    40    23    44 1   
    41    24    25 ar  
    42    24    27 ar  
    43    25    26 ar  
    44    25    45 1   
    45    26    29 ar  
    46    26    46 1   
    47    27    28 ar  
    48    27    47 1   
    49    28    29 ar  
    50    28    48 1   
    51    29    49 1   
@<TRIPOS>SUBSTRUCTURE
     1 SK2         1 TEMP              0 ****  ****    0 ROOT
