@<TRIPOS>MOLECULE
SK2
   49    51     1     0     0
SMALL
No Charge or Current Charge


@<TRIPOS>ATOM
      1 O6          -9.2980    46.5550    46.6220 o          1 SK2      -0.702533
      2 S1          -9.1790    47.9780    46.9440 s6         1 SK2       1.389700
      3 O4          -7.9360    48.3970    47.5950 o          1 SK2      -0.702533
      4 O5          -9.7420    48.9050    45.9640 o          1 SK2      -0.702533
      5 N3         -10.2700    48.1630    48.1420 nu         1 SK2      -0.900100
      6 C15        -10.6470    47.1950    49.0570 ca         1 SK2       0.367000
      7 C16         -9.6980    46.4350    49.7640 ca         1 SK2      -0.144000
      8 C14        -12.0140    47.0030    49.3160 ca         1 SK2      -0.181000
      9 C13        -12.4440    46.0470    50.2560 ca         1 SK2      -0.087300
     10 C12        -13.9530    45.8440    50.4930 c6         1 SK2       0.164300
     11 N2         -14.3320    44.9870    51.6560 n          1 SK2      -0.411800
     12 C4         -13.2580    44.7400    52.6700 c6         1 SK2       0.045700
     13 C5         -13.0810    45.9200    53.6820 c          1 SK2       0.598100
     14 O1         -14.0430    46.4940    54.1800 o          1 SK2      -0.631100
     15 N1         -11.7930    46.2750    54.0330 ns         1 SK2      -0.485900
     16 C6         -11.4560    47.3480    54.9690 c3         1 SK2       0.100300
     17 C3         -11.9530    44.2640    51.9790 c6         1 SK2      -0.017100
     18 C2         -11.4840    45.2840    50.9510 ca         1 SK2      -0.154300
     19 C1         -10.1130    45.4780    50.7040 ca         1 SK2      -0.058000
     20 C7         -15.6640    44.6060    51.8920 c          1 SK2       0.626100
     21 O3         -16.0210    43.9490    52.8590 o          1 SK2      -0.552000
     22 O2         -16.5020    45.0320    50.8990 os         1 SK2      -0.457100
     23 C8         -17.8950    44.7000    51.0100 c3         1 SK2       0.228900
     24 C11        -18.6210    45.2770    49.8020 ca         1 SK2      -0.097300
     25 C19        -19.1560    46.5800    49.8510 ca         1 SK2      -0.083500
     26 C9         -19.8260    47.1130    48.7350 ca         1 SK2      -0.116500
     27 C18        -18.7600    44.5150    48.6250 ca         1 SK2      -0.083500
     28 C10        -19.4300    45.0490    47.5100 ca         1 SK2      -0.116500
     29 C17        -19.9640    46.3480    47.5650 ca         1 SK2      -0.101000
     30 HN3        -11.0200    48.5710    47.6130 hn         1 SK2       0.464000
     31 H16         -8.6380    46.5890    49.5880 ha         1 SK2       0.154000
     32 H14        -12.7500    47.5950    48.7790 ha         1 SK2       0.105000
     33 H121       -14.3760    45.4040    49.5780 h1         1 SK2       0.054700
     34 H122       -14.4220    46.8290    50.6210 h1         1 SK2       0.054700
     35 H4         -13.5720    43.9050    53.3100 h1         1 SK2       0.087700
     36 HN1        -11.0370    45.7840    53.5700 hn         1 SK2       0.327500
     37 H61        -11.8880    47.1290    55.9540 h1         1 SK2       0.038367
     38 H62        -10.3650    47.4250    55.0620 h1         1 SK2       0.038367
     39 H63        -11.8560    48.3010    54.5980 h1         1 SK2       0.038367
     40 H31        -12.1500    43.3130    51.4650 hc         1 SK2       0.060200
     41 H32        -11.1700    44.0420    52.7170 hc         1 SK2       0.060200
     42 H1          -9.3690    44.8930    51.2420 ha         1 SK2       0.107000
     43 H81        -18.3230    45.1170    51.9310 h1         1 SK2       0.055700
     44 H82        -18.0340    43.6100    51.0360 h1         1 SK2       0.055700
     45 H19        -19.0510    47.1800    50.7520 ha         1 SK2       0.115500
     46 H9         -20.2370    48.1200    48.7780 ha         1 SK2       0.112000
     47 H18        -18.3470    43.5100    48.5730 ha         1 SK2       0.115500
     48 H10        -19.5340    44.4570    46.6040 ha         1 SK2       0.112000
     49 H17        -20.4820    46.7610    46.7020 ha         1 SK2       0.110000
@<TRIPOS>BOND
     1     1     2 1   
     2     2     3 1   
     3     2     4 1   
     4     2     5 1   
     5     5     6 1   
     6     5    30 1   
     7     6     7 ar  
     8     6     8 ar  
     9     7    19 ar  
    10     7    31 1   
    11     8     9 ar  
    12     8    32 1   
    13     9    10 1   
    14     9    18 ar  
    15    10    11 1   
    16    10    33 1   
    17    10    34 1   
    18    11    12 1   
    19    11    20 1   
    20    12    13 1   
    21    12    17 1   
    22    12    35 1   
    23    13    14 2   
    24    13    15 1   
    25    15    16 1   
    26    15    36 1   
    27    16    37 1   
    28    16    38 1   
    29    16    39 1   
    30    17    18 1   
    31    17    40 1   
    32    17    41 1   
    33    18    19 ar  
    34    19    42 1   
    35    20    21 2   
    36    20    22 1   
    37    22    23 1   
    38    23    24 1   
    39    23    43 1   
    40    23    44 1   
    41    24    25 ar  
    42    24    27 ar  
    43    25    26 ar  
    44    25    45 1   
    45    26    29 ar  
    46    26    46 1   
    47    27    28 ar  
    48    27    47 1   
    49    28    29 ar  
    50    28    48 1   
    51    29    49 1   
@<TRIPOS>SUBSTRUCTURE
     1 SK2         1 TEMP              0 ****  ****    0 ROOT
