@<TRIPOS>MOLECULE
SK3
   34    35     1     0     0
SMALL
No Charge or Current Charge


@<TRIPOS>ATOM
      1 C5           1.1780     0.5070     1.3150 c5         1 SK3       0.131500
      2 N5          -0.1130     0.3610     0.5490 n7         1 SK3      -0.851400
      3 C4           1.9900    -0.8350     1.1630 c5         1 SK3       0.143800
      4 O4           1.3290    -1.6650     0.2070 oh         1 SK3      -0.713000
      5 C3           3.3940    -0.3730     0.6590 c5         1 SK3       0.111800
      6 O3           4.0480    -1.4350    -0.0430 oh         1 SK3      -0.706500
      7 C2           3.0900     0.8670    -0.2460 c5         1 SK3       0.111800
      8 O2           2.5180     0.5400    -1.5280 oh         1 SK3      -0.706500
      9 C1           2.0720     1.6350     0.6510 c5         1 SK3       0.143800
     10 O1           1.3380     2.5480    -0.1750 oh         1 SK3      -0.713000
     11 C6          -1.2640    -0.1410     1.3230 c3         1 SK3       0.209100
     12 C7          -2.4950    -0.2250     0.4330 ca         1 SK3      -0.091300
     13 C12         -2.7520    -1.3900    -0.3170 ca         1 SK3      -0.098000
     14 C11         -3.8900    -1.4680    -1.1380 ca         1 SK3      -0.114500
     15 C8          -3.3880     0.8620     0.3510 ca         1 SK3      -0.098000
     16 C9          -4.5270     0.7830    -0.4710 ca         1 SK3      -0.114500
     17 C10         -4.7780    -0.3820    -1.2150 ca         1 SK3      -0.109000
     18 H5           0.9860     0.7530     2.3690 h1         1 SK3       0.026700
     19 HN5         -0.3660     1.3060     0.2230 hn         1 SK3       0.427000
     20 H4           2.0700    -1.3550     2.1290 h1         1 SK3       0.064700
     21 HO4          0.5500    -1.0590     0.0190 ho         1 SK3       0.531000
     22 H3           4.0070    -0.0560     1.5160 h1         1 SK3       0.060200
     23 HO3          3.3150    -2.0840    -0.2020 ho         1 SK3       0.523500
     24 H2           4.0020     1.4640    -0.3860 h1         1 SK3       0.060200
     25 HO2          3.0010    -0.2620    -1.8370 ho         1 SK3       0.523500
     26 H1           2.6130     2.1800     1.4380 h1         1 SK3       0.064700
     27 HO1          1.4240     2.1130    -1.0630 ho         1 SK3       0.531000
     28 H61         -1.0480    -1.1370     1.7340 h1         1 SK3       0.037700
     29 H62         -1.4750     0.5240     2.1710 h1         1 SK3       0.037700
     30 H12         -2.0670    -2.2340    -0.2630 ha         1 SK3       0.120000
     31 H11         -4.0830    -2.3700    -1.7150 ha         1 SK3       0.111000
     32 H8          -3.2000     1.7680     0.9230 ha         1 SK3       0.120000
     33 H9          -5.2130     1.6250    -0.5310 ha         1 SK3       0.111000
     34 H10         -5.6590    -0.4430    -1.8510 ha         1 SK3       0.111000
@<TRIPOS>BOND
     1     1     2 1   
     2     1     3 1   
     3     1     9 1   
     4     1    18 1   
     5     2    11 1   
     6     2    19 1   
     7     3     4 1   
     8     3     5 1   
     9     3    20 1   
    10     4    21 1   
    11     5     6 1   
    12     5     7 1   
    13     5    22 1   
    14     6    23 1   
    15     7     8 1   
    16     7     9 1   
    17     7    24 1   
    18     8    25 1   
    19     9    10 1   
    20     9    26 1   
    21    10    27 1   
    22    11    12 1   
    23    11    28 1   
    24    11    29 1   
    25    12    13 ar  
    26    12    15 ar  
    27    13    14 ar  
    28    13    30 1   
    29    14    17 ar  
    30    14    31 1   
    31    15    16 ar  
    32    15    32 1   
    33    16    17 ar  
    34    16    33 1   
    35    17    34 1   
@<TRIPOS>SUBSTRUCTURE
     1 SK3         1 TEMP              0 ****  ****    0 ROOT
