@<TRIPOS>MOLECULE
SK3
   34    35     1     0     0
SMALL
abcg2


@<TRIPOS>ATOM
      1 C5           1.0470     0.5510     0.6630 c5         1 SK3       0.131500
      2 N5          -0.2990     0.5580     0.1470 n7         1 SK3      -0.851400
      3 C4           1.6010    -0.8490     0.9500 c5         1 SK3       0.143800
      4 O4           1.3940    -1.7500    -0.1110 oh         1 SK3      -0.713000
      5 C3           3.0890    -0.5390     1.1670 c5         1 SK3       0.111800
      6 O3           3.9370    -1.6430     1.0910 oh         1 SK3      -0.706500
      7 C2           3.4280     0.6170     0.1800 c5         1 SK3       0.111800
      8 O2           4.2000     0.1680    -0.9120 oh         1 SK3      -0.706500
      9 C1           2.0550     1.1360    -0.3310 c5         1 SK3       0.143800
     10 O1           1.7920     0.6320    -1.6250 oh         1 SK3      -0.713000
     11 C6          -1.3040     0.1910     1.1200 c3         1 SK3       0.209100
     12 C7          -2.6670     0.0770     0.4930 ca         1 SK3      -0.091300
     13 C12         -2.8200    -0.3770    -0.8130 ca         1 SK3      -0.098000
     14 C11         -4.0850    -0.5250    -1.3670 ca         1 SK3      -0.114500
     15 C8          -3.8080     0.3960     1.2270 ca         1 SK3      -0.098000
     16 C9          -5.0740     0.2440     0.6780 ca         1 SK3      -0.114500
     17 C10         -5.2180    -0.2190    -0.6230 ca         1 SK3      -0.109000
     18 H5           1.1500     1.1330     1.5960 h1         1 SK3       0.026700
     19 HN5         -0.5170     1.4750    -0.2240 hn         1 SK3       0.427000
     20 H4           1.1730    -1.2950     1.8530 h1         1 SK3       0.064700
     21 HO4          1.2560    -1.2270    -0.9120 ho         1 SK3       0.531000
     22 H3           3.1950    -0.1460     2.1830 h1         1 SK3       0.060200
     23 HO3          3.8350    -2.0410     0.2200 ho         1 SK3       0.523500
     24 H2           3.9490     1.4140     0.7140 h1         1 SK3       0.060200
     25 HO2          4.9890     0.7070    -0.9920 ho         1 SK3       0.523500
     26 H1           2.0170     2.2330    -0.3380 h1         1 SK3       0.064700
     27 HO1          2.6600     0.4550    -2.0170 ho         1 SK3       0.531000
     28 H61         -1.0350    -0.7820     1.5400 h1         1 SK3       0.037700
     29 H62         -1.3510     0.8830     1.9750 h1         1 SK3       0.037700
     30 H12         -1.9410    -0.6020    -1.4040 ha         1 SK3       0.120000
     31 H11         -4.1850    -0.8750    -2.3870 ha         1 SK3       0.111000
     32 H8          -3.7040     0.7630     2.2420 ha         1 SK3       0.120000
     33 H9          -5.9500     0.4920     1.2660 ha         1 SK3       0.111000
     34 H10         -6.2030    -0.3320    -1.0560 ha         1 SK3       0.111000
@<TRIPOS>BOND
     1     1     2 1   
     2     1     3 1   
     3     1     9 1   
     4     1    18 1   
     5     2    11 1   
     6     2    19 1   
     7     3     4 1   
     8     3     5 1   
     9     3    20 1   
    10     4    21 1   
    11     5     6 1   
    12     5     7 1   
    13     5    22 1   
    14     6    23 1   
    15     7     8 1   
    16     7     9 1   
    17     7    24 1   
    18     8    25 1   
    19     9    10 1   
    20     9    26 1   
    21    10    27 1   
    22    11    12 1   
    23    11    28 1   
    24    11    29 1   
    25    12    13 ar  
    26    12    15 ar  
    27    13    14 ar  
    28    13    30 1   
    29    14    17 ar  
    30    14    31 1   
    31    15    16 ar  
    32    15    32 1   
    33    16    17 ar  
    34    16    33 1   
    35    17    34 1   
@<TRIPOS>SUBSTRUCTURE
     1 SK3         1 TEMP              0 ****  ****    0 ROOT
