@<TRIPOS>MOLECULE
SK4
   43    45     1     0     0
SMALL
abcg2


@<TRIPOS>ATOM
      1 O23          4.0030     2.3190     0.3360 o          1 SK4      -0.523000
      2 S18          2.5640     2.1600     0.1360 sy         1 SK4       1.062500
      3 O22          1.6470     2.7010     1.1370 o          1 SK4      -0.523000
      4 C21          2.1330     2.8500    -1.4450 c3         1 SK4      -0.339100
      5 C12          2.2160     0.4320    -0.0580 ca         1 SK4      -0.292500
      6 C17          3.2320    -0.4470    -0.4700 ca         1 SK4      -0.009000
      7 C11          2.9480    -1.7790    -0.5720 ca         1 SK4      -0.117000
      8 C5           1.6520    -2.2730    -0.3020 ca         1 SK4       0.352000
      9 N10          1.4680    -3.6130    -0.3450 nb         1 SK4      -0.713000
     10 C7           0.2930    -4.0590     0.0010 ca         1 SK4       0.433900
     11 C13         -0.8320    -3.2780     0.3300 ca         1 SK4      -0.352600
     12 C8          -2.1220    -3.9190     0.6920 c          1 SK4       0.642700
     13 O14         -3.1860    -3.2940     0.6750 o          1 SK4      -0.650100
     14 N3          -2.0870    -5.2100     1.0460 nt         1 SK4      -0.591000
     15 C2           0.6160    -1.3650     0.0200 ca         1 SK4      -0.172000
     16 C6           0.9430    -0.0060     0.1930 ca         1 SK4       0.046000
     17 C1          -0.7140    -1.8830     0.2160 ca         1 SK4       0.457000
     18 N4          -1.7860    -1.0770     0.3340 nu         1 SK4      -0.967000
     19 C9          -1.9560     0.1980    -0.2510 ca         1 SK4       0.299000
     20 C15         -2.5680     1.1880     0.4980 ca         1 SK4      -0.150000
     21 C19         -2.7760     2.4550    -0.0510 ca         1 SK4       0.166100
     22 O25         -3.3800     3.3500     0.7500 os         1 SK4      -0.333100
     23 C26         -3.5940     4.6590     0.2590 c3         1 SK4       0.147900
     24 C24         -2.3490     2.7240    -1.3490 ca         1 SK4      -0.205000
     25 C20         -1.7430     1.7130    -2.0880 ca         1 SK4      -0.066000
     26 C16         -1.5510     0.4490    -1.5620 ca         1 SK4      -0.176000
     27 H21          2.7370     2.3840    -2.2200 h1         1 SK4       0.102367
     28 H21A         1.0750     2.6780    -1.6360 h1         1 SK4       0.102367
     29 H21B         2.3360     3.9200    -1.4030 h1         1 SK4       0.102367
     30 H17          4.2300    -0.0840    -0.6790 ha         1 SK4       0.140000
     31 H11          3.7180    -2.4890    -0.8440 ha         1 SK4       0.138000
     32 H7           0.1920    -5.1390    -0.0250 h4         1 SK4       0.012100
     33 HN3         -1.2370    -5.7090     1.2370 hn         1 SK4       0.318000
     34 HN3A        -2.9450    -5.6630     1.3180 hn         1 SK4       0.318000
     35 H6           0.2040     0.6930     0.5540 ha         1 SK4       0.147000
     36 HN4         -2.6420    -1.5850     0.5550 hn         1 SK4       0.548000
     37 H15         -2.8730     0.9870     1.5180 ha         1 SK4       0.144000
     38 H26         -2.6560     5.1590     0.0060 h1         1 SK4       0.043700
     39 H26A        -4.2440     4.6620    -0.6200 h1         1 SK4       0.043700
     40 H26B        -4.0810     5.2120     1.0580 h1         1 SK4       0.043700
     41 H24         -2.4850     3.6970    -1.8000 ha         1 SK4       0.123000
     42 H20         -1.4280     1.9220    -3.1020 ha         1 SK4       0.116000
     43 H16         -1.0960    -0.3310    -2.1590 ha         1 SK4       0.128000
@<TRIPOS>BOND
     1     1     2 2   
     2     2     3 2   
     3     2     4 1   
     4     2     5 1   
     5     4    27 1   
     6     4    28 1   
     7     4    29 1   
     8     5     6 ar  
     9     5    16 ar  
    10     6     7 ar  
    11     6    30 1   
    12     7     8 ar  
    13     7    31 1   
    14     8     9 ar  
    15     8    15 ar  
    16     9    10 ar  
    17    10    11 ar  
    18    10    32 1   
    19    11    12 1   
    20    11    17 ar  
    21    12    13 2   
    22    12    14 1   
    23    14    33 1   
    24    14    34 1   
    25    15    16 ar  
    26    15    17 ar  
    27    16    35 1   
    28    17    18 1   
    29    18    19 1   
    30    18    36 1   
    31    19    20 ar  
    32    19    26 ar  
    33    20    21 ar  
    34    20    37 1   
    35    21    22 1   
    36    21    24 ar  
    37    22    23 1   
    38    23    38 1   
    39    23    39 1   
    40    23    40 1   
    41    24    25 ar  
    42    24    41 1   
    43    25    26 ar  
    44    25    42 1   
    45    26    43 1   
@<TRIPOS>SUBSTRUCTURE
     1 SK4         1 TEMP              0 ****  ****    0 ROOT
