@<TRIPOS>MOLECULE
SK4
   43    45     1     0     0
SMALL
No Charge or Current Charge


@<TRIPOS>ATOM
      1 O23          4.6960     2.0530    -0.0320 o          1 SK4      -0.523000
      2 S18          3.2290     2.0110     0.0090 sy         1 SK4       1.062500
      3 O22          2.4760     2.6870     1.0730 o          1 SK4      -0.523000
      4 C21          2.6440     2.6970    -1.5390 c3         1 SK4      -0.339100
      5 C12          2.6870     0.2950    -0.0790 ca         1 SK4      -0.292500
      6 C17          3.5750    -0.7180    -0.4820 ca         1 SK4      -0.009000
      7 C11          3.1290    -2.0460    -0.5370 ca         1 SK4      -0.117000
      8 C5           1.8030    -2.3840    -0.2170 ca         1 SK4       0.352000
      9 N10          1.4350    -3.6770    -0.2640 nb         1 SK4      -0.713000
     10 C7           0.1740    -4.0110     0.0640 ca         1 SK4       0.433900
     11 C13         -0.8010    -3.0810     0.4280 ca         1 SK4      -0.352600
     12 C8          -2.1690    -3.5580     0.8050 c          1 SK4       0.642700
     13 O14         -2.9700    -2.8690     1.4150 o          1 SK4      -0.650100
     14 N3          -2.5170    -4.8220     0.4970 nt         1 SK4      -0.591000
     15 C2           0.8980    -1.3660     0.1480 ca         1 SK4      -0.172000
     16 C6           1.3570    -0.0300     0.2430 ca         1 SK4       0.046000
     17 C1          -0.4380    -1.7260     0.4300 ca         1 SK4       0.457000
     18 N4          -1.4160    -0.7720     0.6990 nu         1 SK4      -0.967000
     19 C9          -1.8330     0.3740     0.0250 ca         1 SK4       0.299000
     20 C15         -2.7680     1.2200     0.6350 ca         1 SK4      -0.150000
     21 C19         -3.2130     2.3810    -0.0160 ca         1 SK4       0.166100
     22 O25         -4.1280     3.1780     0.6410 os         1 SK4      -0.333100
     23 C26         -4.6460     4.3890     0.0630 c3         1 SK4       0.147900
     24 C24         -2.7200     2.6920    -1.3020 ca         1 SK4      -0.205000
     25 C20         -1.7940     1.8380    -1.9230 ca         1 SK4      -0.066000
     26 C16         -1.3570     0.6800    -1.2620 ca         1 SK4      -0.176000
     27 H21          3.1110     2.1390    -2.3570 h1         1 SK4       0.102367
     28 H21A         1.5540     2.5900    -1.5700 h1         1 SK4       0.102367
     29 H21B         2.9310     3.7520    -1.5750 h1         1 SK4       0.102367
     30 H17          4.6080    -0.4880    -0.7400 ha         1 SK4       0.140000
     31 H11          3.8220    -2.8300    -0.8290 ha         1 SK4       0.138000
     32 H7          -0.0360    -5.0790     0.0360 h4         1 SK4       0.012100
     33 HN3         -1.8880    -5.4210    -0.0140 hn         1 SK4       0.318000
     34 HN3A        -3.4330    -5.1510     0.7620 hn         1 SK4       0.318000
     35 H6           0.6890     0.7620     0.5730 ha         1 SK4       0.147000
     36 HN4         -2.1820    -1.2070     1.2300 hn         1 SK4       0.548000
     37 H15         -3.1470     0.9870     1.6250 ha         1 SK4       0.144000
     38 H26         -3.8370     5.1030    -0.1390 h1         1 SK4       0.043700
     39 H26A        -5.1740     4.1790    -0.8760 h1         1 SK4       0.043700
     40 H26B        -5.3550     4.8650     0.7510 h1         1 SK4       0.043700
     41 H24         -3.0450     3.5830    -1.8320 ha         1 SK4       0.123000
     42 H20         -1.4190     2.0720    -2.9180 ha         1 SK4       0.116000
     43 H16         -0.6530     0.0180    -1.7590 ha         1 SK4       0.128000
@<TRIPOS>BOND
     1     1     2 2   
     2     2     3 2   
     3     2     4 1   
     4     2     5 1   
     5     4    27 1   
     6     4    28 1   
     7     4    29 1   
     8     5     6 ar  
     9     5    16 ar  
    10     6     7 ar  
    11     6    30 1   
    12     7     8 ar  
    13     7    31 1   
    14     8     9 ar  
    15     8    15 ar  
    16     9    10 ar  
    17    10    11 ar  
    18    10    32 1   
    19    11    12 1   
    20    11    17 ar  
    21    12    13 2   
    22    12    14 1   
    23    14    33 1   
    24    14    34 1   
    25    15    16 ar  
    26    15    17 ar  
    27    16    35 1   
    28    17    18 1   
    29    18    19 1   
    30    18    36 1   
    31    19    20 ar  
    32    19    26 ar  
    33    20    21 ar  
    34    20    37 1   
    35    21    22 1   
    36    21    24 ar  
    37    22    23 1   
    38    23    38 1   
    39    23    39 1   
    40    23    40 1   
    41    24    25 ar  
    42    24    41 1   
    43    25    26 ar  
    44    25    42 1   
    45    26    43 1   
@<TRIPOS>SUBSTRUCTURE
     1 SK4         1 TEMP              0 ****  ****    0 ROOT
