@<TRIPOS>MOLECULE
SK5
   31    32     1     0     0
SMALL
No Charge or Current Charge


@<TRIPOS>ATOM
      1 CAJ         51.5750   153.4310    27.4380 ca         1 SK5      -0.134600
      2 CAK         52.1130   154.3130    26.4710 ca         1 SK5      -0.075000
      3 CAL         52.9570   153.8350    25.4530 ca         1 SK5      -0.074000
      4 CAM         53.2870   152.4670    25.3720 ca         1 SK5      -0.176300
      5 CAQ         54.1990   151.9480    24.2540 c3         1 SK5       0.356300
      6 FAS         53.4860   151.6040    23.1580 f          1 SK5      -0.112000
      7 FAT         54.9000   150.8530    24.6280 f          1 SK5      -0.112000
      8 FAR         55.1080   152.8700    23.8610 f          1 SK5      -0.112000
      9 CAN         52.7350   151.5810    26.3200 ca         1 SK5      -0.074000
     10 CAO         51.8900   152.0570    27.3370 ca         1 SK5      -0.075000
     11 CAI         50.6560   153.9030    28.5510 c          1 SK5       0.581900
     12 OAP         49.9340   153.1020    29.1350 o          1 SK5      -0.525100
     13 CAH         50.6190   155.3500    28.9340 ce         1 SK5      -0.316200
     14 CAG         49.7770   155.8830    29.8710 cf         1 SK5      -0.063200
     15 CAB         49.6580   157.2800    30.3390 ca         1 SK5      -0.083800
     16 CAA         50.4690   158.3130    29.8180 ca         1 SK5      -0.083000
     17 CAF         50.3310   159.6320    30.2850 ca         1 SK5      -0.115000
     18 CAE         49.3840   159.9350    31.2760 ca         1 SK5      -0.092000
     19 CAD         48.5730   158.9160    31.8000 ca         1 SK5      -0.115000
     20 CAC         48.7100   157.5960    31.3340 ca         1 SK5      -0.083000
     21 H1          51.8690   155.3710    26.4750 ha         1 SK5       0.131000
     22 H2          53.3470   154.5390    24.7200 ha         1 SK5       0.133000
     23 H3          52.9550   150.5160    26.2720 ha         1 SK5       0.133000
     24 H4          51.4840   151.3470    28.0550 ha         1 SK5       0.131000
     25 H5          51.3320   155.9990    28.4410 ha         1 SK5       0.185000
     26 H6          49.0780   155.1970    30.3590 ha         1 SK5       0.193000
     27 H7          51.2090   158.1080    29.0510 ha         1 SK5       0.114500
     28 H8          50.9600   160.4200    29.8770 ha         1 SK5       0.117000
     29 H9          49.2780   160.9560    31.6370 ha         1 SK5       0.116000
     30 H10         47.8380   159.1470    32.5680 ha         1 SK5       0.117000
     31 H11         48.0740   156.8190    31.7510 ha         1 SK5       0.114500
@<TRIPOS>BOND
     1     1     2 ar  
     2     1    10 ar  
     3     1    11 1   
     4     2     3 ar  
     5     2    21 1   
     6     3     4 ar  
     7     3    22 1   
     8     4     5 1   
     9     4     9 ar  
    10     5     6 1   
    11     5     7 1   
    12     5     8 1   
    13     9    10 ar  
    14     9    23 1   
    15    10    24 1   
    16    11    12 2   
    17    11    13 1   
    18    13    14 2   
    19    13    25 1   
    20    14    15 1   
    21    14    26 1   
    22    15    16 ar  
    23    15    20 ar  
    24    16    17 ar  
    25    16    27 1   
    26    17    18 ar  
    27    17    28 1   
    28    18    19 ar  
    29    18    29 1   
    30    19    20 ar  
    31    19    30 1   
    32    20    31 1   
@<TRIPOS>SUBSTRUCTURE
     1 SK5         1 TEMP              0 ****  ****    0 ROOT
