@<TRIPOS>MOLECULE
SK5
   31    32     1     0     0
SMALL
abcg2


@<TRIPOS>ATOM
      1 CAJ         51.4380   153.5140    27.3270 ca         1 SK5      -0.134600
      2 CAK         52.0820   154.3760    26.4450 ca         1 SK5      -0.075000
      3 CAL         52.9930   153.8920    25.5170 ca         1 SK5      -0.074000
      4 CAM         53.2790   152.5360    25.4760 ca         1 SK5      -0.176300
      5 CAQ         54.2930   151.9820    24.5210 c3         1 SK5       0.356300
      6 FAS         53.7520   151.0890    23.6820 f          1 SK5      -0.112000
      7 FAT         55.2780   151.3460    25.1700 f          1 SK5      -0.112000
      8 FAR         54.8640   152.9290    23.7740 f          1 SK5      -0.112000
      9 CAN         52.6310   151.6610    26.3440 ca         1 SK5      -0.074000
     10 CAO         51.7120   152.1470    27.2530 ca         1 SK5      -0.075000
     11 CAI         50.4510   153.9880    28.3470 c          1 SK5       0.581900
     12 OAP         49.6620   153.1970    28.8310 o          1 SK5      -0.525100
     13 CAH         50.4980   155.4010    28.7560 ce         1 SK5      -0.316200
     14 CAG         49.7050   155.8650    29.7340 cf         1 SK5      -0.063200
     15 CAB         49.6690   157.2280    30.2490 ca         1 SK5      -0.083800
     16 CAA         50.3340   158.2940    29.6320 ca         1 SK5      -0.083000
     17 CAF         50.2680   159.5680    30.1680 ca         1 SK5      -0.115000
     18 CAE         49.5390   159.8040    31.3290 ca         1 SK5      -0.092000
     19 CAD         48.8720   158.7580    31.9500 ca         1 SK5      -0.115000
     20 CAC         48.9320   157.4820    31.4100 ca         1 SK5      -0.083000
     21 H1          51.8780   155.4380    26.4510 ha         1 SK5       0.131000
     22 H2          53.4720   154.5890    24.8430 ha         1 SK5       0.133000
     23 H3          52.8400   150.5990    26.3200 ha         1 SK5       0.133000
     24 H4          51.2160   151.4600    27.9250 ha         1 SK5       0.131000
     25 H5          51.2180   156.0520    28.2810 ha         1 SK5       0.185000
     26 H6          49.0260   155.1690    30.2170 ha         1 SK5       0.193000
     27 H7          50.8980   158.1350    28.7230 ha         1 SK5       0.114500
     28 H8          50.7830   160.3830    29.6770 ha         1 SK5       0.117000
     29 H9          49.4900   160.8030    31.7440 ha         1 SK5       0.116000
     30 H10         48.3030   158.9350    32.8530 ha         1 SK5       0.117000
     31 H11         48.4070   156.6680    31.8950 ha         1 SK5       0.114500
@<TRIPOS>BOND
     1     1     2 ar  
     2     1    10 ar  
     3     1    11 1   
     4     2     3 ar  
     5     2    21 1   
     6     3     4 ar  
     7     3    22 1   
     8     4     5 1   
     9     4     9 ar  
    10     5     6 1   
    11     5     7 1   
    12     5     8 1   
    13     9    10 ar  
    14     9    23 1   
    15    10    24 1   
    16    11    12 2   
    17    11    13 1   
    18    13    14 2   
    19    13    25 1   
    20    14    15 1   
    21    14    26 1   
    22    15    16 ar  
    23    15    20 ar  
    24    16    17 ar  
    25    16    27 1   
    26    17    18 ar  
    27    17    28 1   
    28    18    19 ar  
    29    18    29 1   
    30    19    20 ar  
    31    19    30 1   
    32    20    31 1   
@<TRIPOS>SUBSTRUCTURE
     1 SK5         1 TEMP              0 ****  ****    0 ROOT
