@<TRIPOS>MOLECULE
SK6
   50    52     1     0     0
SMALL
abcg2


@<TRIPOS>ATOM
      1 N01         -5.4560    -0.4980     0.0150 nb         1 SK6      -0.754000
      2 C02         -6.7240    -0.2000     0.2680 ca         1 SK6       0.599900
      3 C03         -7.2290     1.1070     0.1370 ca         1 SK6      -0.231000
      4 C04         -6.3790     2.1170    -0.2610 ca         1 SK6       0.001700
      5 C05         -5.0420     1.7900    -0.5200 ca         1 SK6      -0.216000
      6 C06         -4.6310     0.4780    -0.3710 ca         1 SK6       0.397300
      7 N07         -7.5490    -1.2300     0.6200 nv         1 SK6      -1.051900
      8 C08         -6.8570     3.5280    -0.4120 c3         1 SK6      -0.053800
      9 C09         -3.2070     0.0770    -0.6340 c3         1 SK6      -0.123700
     10 C10         -2.5290    -0.5160     0.6080 c3         1 SK6      -0.029100
     11 C11         -1.1070    -0.9050     0.3170 ca         1 SK6      -0.037300
     12 C12         -0.0910     0.0260     0.4410 ca         1 SK6      -0.171000
     13 C13          1.2460    -0.2740     0.1280 ca         1 SK6       0.324000
     14 C14          1.5450    -1.5670    -0.3120 ca         1 SK6      -0.160000
     15 C15          0.5150    -2.4980    -0.4360 ca         1 SK6       0.025000
     16 C16         -0.8050    -2.1900    -0.1310 ca         1 SK6      -0.122000
     17 N17          2.2010     0.6960     0.2340 nu         1 SK6      -0.961200
     18 C18          3.6110     0.4040     0.1440 c3         1 SK6       0.216800
     19 C19          4.4250     1.6830     0.3100 c3         1 SK6      -0.139700
     20 C20          5.8960     1.3980     0.2180 ca         1 SK6       0.345300
     21 N21          6.4850     0.9100     1.3080 nb         1 SK6      -0.673000
     22 C22          7.7790     0.6160     1.2530 ca         1 SK6       0.341900
     23 C23          8.5560     0.7900     0.1170 ca         1 SK6      -0.162000
     24 C24          7.9440     1.2960    -1.0190 ca         1 SK6      -0.070000
     25 C25          6.5940     1.6050    -0.9690 ca         1 SK6      -0.155000
     26 C26          0.8340    -3.8180    -0.8820 cg         1 SK6       0.326000
     27 N27          1.0880    -4.8830    -1.2410 n1         1 SK6      -0.461000
     28 H03         -8.2720     1.3080     0.3510 ha         1 SK6       0.119000
     29 H05         -4.3370     2.5510    -0.8300 ha         1 SK6       0.121000
     30 HN07        -7.0930    -2.0600     0.9640 hn         1 SK6       0.467500
     31 HN0A        -8.3960    -0.9980     1.1110 hn         1 SK6       0.467500
     32 H08         -6.3250     4.1930     0.2700 hc         1 SK6       0.046367
     33 H08A        -6.6710     3.8940    -1.4230 hc         1 SK6       0.046367
     34 H08B        -7.9230     3.6200    -0.2090 hc         1 SK6       0.046367
     35 H09         -3.1840    -0.6630    -1.4390 hc         1 SK6       0.057200
     36 H09A        -2.6390     0.9420    -0.9830 hc         1 SK6       0.057200
     37 H10         -2.5550     0.2160     1.4190 hc         1 SK6       0.058200
     38 H10A        -3.0970    -1.3850     0.9430 hc         1 SK6       0.058200
     39 H12         -0.3330     1.0250     0.7890 ha         1 SK6       0.111000
     40 H14          2.5570    -1.8590    -0.5520 ha         1 SK6       0.126000
     41 H16         -1.5780    -2.9390    -0.2340 ha         1 SK6       0.129000
     42 HN17         1.9560     1.4800     0.8180 hn         1 SK6       0.473000
     43 H18          3.9260    -0.3300     0.8970 h1         1 SK6       0.048700
     44 H18A         3.8310    -0.0320    -0.8350 h1         1 SK6       0.048700
     45 H19          4.1310     2.4020    -0.4570 hc         1 SK6       0.061200
     46 H19A         4.2050     2.1290     1.2840 hc         1 SK6       0.061200
     47 H22          8.2220     0.2240     2.1610 h4         1 SK6       0.020100
     48 H23          9.6070     0.5370     0.1290 ha         1 SK6       0.126000
     49 H24          8.5090     1.4520    -1.9290 ha         1 SK6       0.121000
     50 H25          6.0840     2.0030    -1.8360 ha         1 SK6       0.125000
@<TRIPOS>BOND
     1     1     2 ar  
     2     1     6 ar  
     3     2     3 ar  
     4     2     7 1   
     5     3     4 ar  
     6     3    28 1   
     7     4     5 ar  
     8     4     8 1   
     9     5     6 ar  
    10     5    29 1   
    11     6     9 1   
    12     7    30 1   
    13     7    31 1   
    14     8    32 1   
    15     8    33 1   
    16     8    34 1   
    17     9    10 1   
    18     9    35 1   
    19     9    36 1   
    20    10    11 1   
    21    10    37 1   
    22    10    38 1   
    23    11    12 ar  
    24    11    16 ar  
    25    12    13 ar  
    26    12    39 1   
    27    13    14 ar  
    28    13    17 1   
    29    14    15 ar  
    30    14    40 1   
    31    15    16 ar  
    32    15    26 1   
    33    16    41 1   
    34    17    18 1   
    35    17    42 1   
    36    18    19 1   
    37    18    43 1   
    38    18    44 1   
    39    19    20 1   
    40    19    45 1   
    41    19    46 1   
    42    20    21 ar  
    43    20    25 ar  
    44    21    22 ar  
    45    22    23 ar  
    46    22    47 1   
    47    23    24 ar  
    48    23    48 1   
    49    24    25 ar  
    50    24    49 1   
    51    25    50 1   
    52    26    27 3   
@<TRIPOS>SUBSTRUCTURE
     1 SK6         1 TEMP              0 ****  ****    0 ROOT
