@<TRIPOS>MOLECULE
SK6
   50    52     1     0     0
SMALL
No Charge or Current Charge


@<TRIPOS>ATOM
      1 N01         -5.6910    -0.5190    -0.6780 nb         1 SK6      -0.754000
      2 C02         -6.9360    -0.1020    -0.5050 ca         1 SK6       0.599900
      3 C03         -7.3080     1.1940    -0.1420 ca         1 SK6      -0.231000
      4 C04         -6.2990     2.1470     0.0550 ca         1 SK6       0.001700
      5 C05         -4.9710     1.7280    -0.1300 ca         1 SK6      -0.216000
      6 C06         -4.7100     0.3930    -0.4950 ca         1 SK6       0.397300
      7 N07         -7.8080    -1.0910    -0.7090 nv         1 SK6      -1.051900
      8 C08         -6.6270     3.5780     0.4470 c3         1 SK6      -0.053800
      9 C09         -3.2820    -0.0920    -0.6910 c3         1 SK6      -0.123700
     10 C10         -2.5840    -0.4290     0.6450 c3         1 SK6      -0.029100
     11 C11         -1.1490    -0.8930     0.4390 ca         1 SK6      -0.037300
     12 C12         -0.0930     0.0370     0.4470 ca         1 SK6      -0.171000
     13 C13          1.2320    -0.3810     0.2520 ca         1 SK6       0.324000
     14 C14          1.5060    -1.7440     0.0440 ca         1 SK6      -0.160000
     15 C15          0.4590    -2.6860     0.0310 ca         1 SK6       0.025000
     16 C16         -0.8670    -2.2550     0.2290 ca         1 SK6      -0.122000
     17 N17          2.2490     0.5750     0.2670 nu         1 SK6      -0.961200
     18 C18          3.6980     0.3420     0.1580 c3         1 SK6       0.216800
     19 C19          4.4580     1.6750     0.2300 c3         1 SK6      -0.139700
     20 C20          5.9540     1.4690     0.0860 ca         1 SK6       0.345300
     21 N21          6.6720     1.4170     1.2320 nb         1 SK6      -0.673000
     22 C22          8.0090     1.2280     1.1370 ca         1 SK6       0.341900
     23 C23          8.6740     1.0840    -0.0930 ca         1 SK6      -0.162000
     24 C24          7.9320     1.1360    -1.2830 ca         1 SK6      -0.070000
     25 C25          6.5440     1.3320    -1.1860 ca         1 SK6      -0.155000
     26 C26          0.7420    -4.0800    -0.1840 cg         1 SK6       0.326000
     27 N27          0.9810    -5.2100    -0.3590 n1         1 SK6      -0.461000
     28 H03         -8.3550     1.4530    -0.0190 ha         1 SK6       0.119000
     29 H05         -4.1480     2.4230     0.0080 ha         1 SK6       0.121000
     30 HN07        -7.3980    -2.0170    -0.7310 hn         1 SK6       0.467500
     31 HN0A        -8.7230    -1.0080    -0.2810 hn         1 SK6       0.467500
     32 H08         -5.8390     4.0090     1.0760 hc         1 SK6       0.046367
     33 H08A        -6.7310     4.2110    -0.4420 hc         1 SK6       0.046367
     34 H08B        -7.5660     3.6330     1.0100 hc         1 SK6       0.046367
     35 H09         -3.2630    -0.9770    -1.3380 hc         1 SK6       0.057200
     36 H09A        -2.7020     0.6790    -1.2120 hc         1 SK6       0.057200
     37 H10         -2.6040     0.4540     1.2960 hc         1 SK6       0.058200
     38 H10A        -3.1610    -1.2040     1.1660 hc         1 SK6       0.058200
     39 H12         -0.3060     1.0910     0.6040 ha         1 SK6       0.111000
     40 H14          2.5280    -2.0780    -0.1090 ha         1 SK6       0.126000
     41 H16         -1.6800    -2.9790     0.2160 ha         1 SK6       0.129000
     42 HN17         1.9470     1.5370     0.4280 hn         1 SK6       0.473000
     43 H18          4.0380    -0.3130     0.9730 h1         1 SK6       0.048700
     44 H18A         3.9280    -0.1540    -0.7950 h1         1 SK6       0.048700
     45 H19          4.1010     2.3390    -0.5650 hc         1 SK6       0.061200
     46 H19A         4.2300     2.1720     1.1810 hc         1 SK6       0.061200
     47 H22          8.5630     1.1910     2.0750 h4         1 SK6       0.020100
     48 H23          9.7500     0.9340    -0.1140 ha         1 SK6       0.126000
     49 H24          8.4160     1.0280    -2.2510 ha         1 SK6       0.121000
     50 H25          5.9320     1.3780    -2.0820 ha         1 SK6       0.125000
@<TRIPOS>BOND
     1     1     2 ar  
     2     1     6 ar  
     3     2     3 ar  
     4     2     7 1   
     5     3     4 ar  
     6     3    28 1   
     7     4     5 ar  
     8     4     8 1   
     9     5     6 ar  
    10     5    29 1   
    11     6     9 1   
    12     7    30 1   
    13     7    31 1   
    14     8    32 1   
    15     8    33 1   
    16     8    34 1   
    17     9    10 1   
    18     9    35 1   
    19     9    36 1   
    20    10    11 1   
    21    10    37 1   
    22    10    38 1   
    23    11    12 ar  
    24    11    16 ar  
    25    12    13 ar  
    26    12    39 1   
    27    13    14 ar  
    28    13    17 1   
    29    14    15 ar  
    30    14    40 1   
    31    15    16 ar  
    32    15    26 1   
    33    16    41 1   
    34    17    18 1   
    35    17    42 1   
    36    18    19 1   
    37    18    43 1   
    38    18    44 1   
    39    19    20 1   
    40    19    45 1   
    41    19    46 1   
    42    20    21 ar  
    43    20    25 ar  
    44    21    22 ar  
    45    22    23 ar  
    46    22    47 1   
    47    23    24 ar  
    48    23    48 1   
    49    24    25 ar  
    50    24    49 1   
    51    25    50 1   
    52    26    27 3   
@<TRIPOS>SUBSTRUCTURE
     1 SK6         1 TEMP              0 ****  ****    0 ROOT
