@<TRIPOS>MOLECULE
SK7
   30    30     1     0     0
SMALL
No Charge or Current Charge


@<TRIPOS>ATOM
      1 N1          -1.0430     1.1870    -0.1720 n          1 SK7      -0.301000
      2 C6          -0.5590     2.5860    -0.0420 c3         1 SK7       0.085300
      3 O1          -3.2470     1.8460     0.1110 o          1 SK7      -0.558000
      4 O2          -2.5890    -2.5180    -0.5350 o          1 SK7      -0.534000
      5 N2          -2.8320    -0.3230    -0.2010 ns         1 SK7      -0.464500
      6 C1          -2.4290     0.9590    -0.0750 c          1 SK7       0.617000
      7 C2          -2.0740    -1.4160    -0.4350 c          1 SK7       0.586200
      8 C3          -0.6260    -1.1420    -0.5600 cc         1 SK7      -0.288400
      9 C4           0.2100    -2.3720    -0.8820 c3         1 SK7      -0.022900
     10 C5          -0.1370     0.1490    -0.4020 cd         1 SK7       0.152600
     11 C11          1.3020     0.3870    -0.5380 cf         1 SK7      -0.185000
     12 C12          2.2380     0.0300     0.3810 c2         1 SK7      -0.123400
     13 C14          1.9320    -0.6560     1.7030 c3         1 SK7       0.194300
     14 C13          3.7170     0.3110     0.1850 c3         1 SK7       0.194300
     15 O4           1.6260     0.3300     2.6940 oh         1 SK7      -0.652500
     16 O3           4.2960    -0.7080    -0.6380 oh         1 SK7      -0.652500
     17 H1          -1.2060     3.1610     0.6330 h1         1 SK7       0.060367
     18 H2           0.4570     2.6120     0.3700 h1         1 SK7       0.060367
     19 H3          -0.5570     3.0660    -1.0290 h1         1 SK7       0.060367
     20 H4          -3.8230    -0.4810    -0.1220 hn         1 SK7       0.344500
     21 H5          -0.2220    -2.9370    -1.7160 hc         1 SK7       0.046700
     22 H6           1.2370    -2.1240    -1.1730 hc         1 SK7       0.046700
     23 H7           0.2650    -3.0440    -0.0170 hc         1 SK7       0.046700
     24 H8           1.6070     0.9070    -1.4480 ha         1 SK7       0.215000
     25 H11          1.0870    -1.3460     1.5850 h1         1 SK7       0.041200
     26 H12          2.7920    -1.2610     2.0210 h1         1 SK7       0.041200
     27 H13          3.8400     1.2960    -0.2860 h1         1 SK7       0.041200
     28 H14          4.2280     0.3540     1.1580 h1         1 SK7       0.041200
     29 H15          0.8640     0.8420     2.3480 ho         1 SK7       0.453500
     30 H16          5.2450    -0.4790    -0.7500 ho         1 SK7       0.453500
@<TRIPOS>BOND
     1     1     2 1   
     2     1     6 1   
     3     1    10 1   
     4     2    17 1   
     5     2    18 1   
     6     2    19 1   
     7     3     6 2   
     8     4     7 2   
     9     5     6 1   
    10     5     7 1   
    11     5    20 1   
    12     7     8 1   
    13     8     9 1   
    14     8    10 2   
    15     9    21 1   
    16     9    22 1   
    17     9    23 1   
    18    10    11 1   
    19    11    12 2   
    20    11    24 1   
    21    12    13 1   
    22    12    14 1   
    23    13    15 1   
    24    13    25 1   
    25    13    26 1   
    26    14    16 1   
    27    14    27 1   
    28    14    28 1   
    29    15    29 1   
    30    16    30 1   
@<TRIPOS>SUBSTRUCTURE
     1 SK7         1 TEMP              0 ****  ****    0 ROOT
