@<TRIPOS>MOLECULE
SK7
   30    30     1     0     0
SMALL
abcg2


@<TRIPOS>ATOM
      1 N1          -0.9070     1.2270    -0.2310 n          1 SK7      -0.301000
      2 C6          -0.2600     2.5260    -0.0900 c3         1 SK7       0.085300
      3 O1          -2.9850     2.1720    -0.1520 o          1 SK7      -0.558000
      4 O2          -2.7500    -2.3270    -0.3750 o          1 SK7      -0.534000
      5 N2          -2.8140    -0.0750    -0.2670 ns         1 SK7      -0.464500
      6 C1          -2.2800     1.1830    -0.2150 c          1 SK7       0.617000
      7 C2          -2.1360    -1.2740    -0.3450 c          1 SK7       0.586200
      8 C3          -0.6950    -1.1540    -0.4040 cc         1 SK7      -0.288400
      9 C4           0.0770    -2.4280    -0.5570 c3         1 SK7      -0.022900
     10 C5          -0.1390     0.0850    -0.3440 cd         1 SK7       0.152600
     11 C11          1.3090     0.3040    -0.4980 cf         1 SK7      -0.185000
     12 C12          2.2520    -0.0110     0.3850 c2         1 SK7      -0.123400
     13 C14          2.0060    -0.5860     1.7560 c3         1 SK7       0.194300
     14 C13          3.7080     0.1930     0.0960 c3         1 SK7       0.194300
     15 O4           0.7670    -0.2680     2.3310 oh         1 SK7      -0.652500
     16 O3           3.9260     0.4970    -1.2530 oh         1 SK7      -0.652500
     17 H1          -0.9920     3.2550     0.2360 h1         1 SK7       0.060367
     18 H2           0.5280     2.4620     0.6550 h1         1 SK7       0.060367
     19 H3           0.1660     2.8580    -1.0360 h1         1 SK7       0.060367
     20 H4          -3.8250    -0.1200    -0.2460 hn         1 SK7       0.344500
     21 H5          -0.3280    -3.0290    -1.3710 hc         1 SK7       0.046700
     22 H6           1.1270    -2.2440    -0.7690 hc         1 SK7       0.046700
     23 H7           0.0210    -3.0430     0.3440 hc         1 SK7       0.046700
     24 H8           1.5970     0.7590    -1.4410 ha         1 SK7       0.215000
     25 H11          2.1740    -1.6710     1.7120 h1         1 SK7       0.041200
     26 H12          2.7770    -0.1970     2.4290 h1         1 SK7       0.041200
     27 H13          4.0710     0.9910     0.7590 h1         1 SK7       0.041200
     28 H14          4.2470    -0.7160     0.4030 h1         1 SK7       0.041200
     29 H15          0.1050    -0.8890     2.0180 ho         1 SK7       0.453500
     30 H16          4.8510     0.7370    -1.3610 ho         1 SK7       0.453500
@<TRIPOS>BOND
     1     1     2 1   
     2     1     6 1   
     3     1    10 1   
     4     2    17 1   
     5     2    18 1   
     6     2    19 1   
     7     3     6 2   
     8     4     7 2   
     9     5     6 1   
    10     5     7 1   
    11     5    20 1   
    12     7     8 1   
    13     8     9 1   
    14     8    10 2   
    15     9    21 1   
    16     9    22 1   
    17     9    23 1   
    18    10    11 1   
    19    11    12 2   
    20    11    24 1   
    21    12    13 1   
    22    12    14 1   
    23    13    15 1   
    24    13    25 1   
    25    13    26 1   
    26    14    16 1   
    27    14    27 1   
    28    14    28 1   
    29    15    29 1   
    30    16    30 1   
@<TRIPOS>SUBSTRUCTURE
     1 SK7         1 TEMP              0 ****  ****    0 ROOT
