@<TRIPOS>MOLECULE
SK8
   33    36     1     0     0
SMALL
No Charge or Current Charge


@<TRIPOS>ATOM
      1 C1          -2.1090    -0.2610     0.9540 ca         1 SK8      -0.063000
      2 C2          -3.5060    -0.4120     0.9200 ca         1 SK8      -0.159000
      3 C3          -4.0880    -1.3360     0.0400 ca         1 SK8       0.175000
      4 C4          -3.2810    -2.1200    -0.7980 ca         1 SK8      -0.159000
      5 C5          -1.8830    -1.9700    -0.7660 ca         1 SK8      -0.063000
      6 C6          -1.2880    -1.0180     0.0890 ca         1 SK8      -0.129500
      7 C7           0.1710    -0.9010     0.1550 cc         1 SK8       0.326500
      8 C8           0.8450     0.3180     0.1980 cd         1 SK8      -0.127000
      9 N9           2.1730    -0.0870     0.3040 na         1 SK8      -0.172500
     10 C10          2.1710    -1.4400     0.3280 cd         1 SK8       0.504800
     11 N11          0.9910    -1.9980     0.2110 nc         1 SK8      -0.632000
     12 S12          3.7660    -2.1620     0.2420 ss         1 SK8      -0.291300
     13 C13          4.5200    -0.4710    -0.1490 c5         1 SK8       0.012600
     14 C14          3.4420     0.6020     0.2230 c5         1 SK8       0.077600
     15 C15          0.3640     1.7000    -0.0460 ca         1 SK8       0.028000
     16 C16         -0.8060     1.9730    -0.7850 ca         1 SK8      -0.154000
     17 C17         -1.2090     3.3010    -0.9930 ca         1 SK8       0.334900
     18 N18         -0.5240     4.3640    -0.5160 nb         1 SK8      -0.657000
     19 C19          0.6020     4.1130     0.1870 ca         1 SK8       0.334900
     20 C20          1.0770     2.8150     0.4370 ca         1 SK8      -0.154000
     21 F21         -5.4300    -1.4820     0.0100 f          1 SK8      -0.178000
     22 H1          -1.6630     0.4460     1.6520 ha         1 SK8       0.127000
     23 H2          -4.1360     0.1810     1.5780 ha         1 SK8       0.131500
     24 H3          -3.7380    -2.8440    -1.4670 ha         1 SK8       0.131500
     25 H4          -1.2620    -2.5860    -1.4120 ha         1 SK8       0.127000
     26 H5           5.4630    -0.3250     0.3940 h1         1 SK8       0.087700
     27 H6           3.4080     1.4070    -0.5230 h1         1 SK8       0.075700
     28 H7          -1.3910     1.1800    -1.2370 ha         1 SK8       0.129000
     29 H8          -2.1060     3.5230    -1.5700 h4         1 SK8       0.022100
     30 H9           1.1390     4.9820     0.5680 h4         1 SK8       0.022100
     31 H10          1.9740     2.6970     1.0340 ha         1 SK8       0.129000
     32 H11          4.7390    -0.4320    -1.2240 h1         1 SK8       0.087700
     33 H12          3.6720     1.0520     1.1970 h1         1 SK8       0.075700
@<TRIPOS>BOND
     1     1     2 ar  
     2     1     6 ar  
     3     1    22 1   
     4     2     3 ar  
     5     2    23 1   
     6     3     4 ar  
     7     3    21 1   
     8     4     5 ar  
     9     4    24 1   
    10     5     6 ar  
    11     5    25 1   
    12     6     7 1   
    13     7     8 2   
    14     7    11 1   
    15     8     9 1   
    16     8    15 1   
    17     9    10 1   
    18     9    14 1   
    19    10    11 2   
    20    10    12 1   
    21    12    13 1   
    22    13    14 1   
    23    13    26 1   
    24    13    32 1   
    25    14    27 1   
    26    14    33 1   
    27    15    16 ar  
    28    15    20 ar  
    29    16    17 ar  
    30    16    28 1   
    31    17    18 ar  
    32    17    29 1   
    33    18    19 ar  
    34    19    20 ar  
    35    19    30 1   
    36    20    31 1   
@<TRIPOS>SUBSTRUCTURE
     1 SK8         1 TEMP              0 ****  ****    0 ROOT
