@<TRIPOS>MOLECULE
SK8
   33    36     1     0     0
SMALL
abcg2


@<TRIPOS>ATOM
      1 C1          -2.2120    -0.1480     0.7540 ca         1 SK8      -0.063000
      2 C2          -3.5820    -0.3550     0.7540 ca         1 SK8      -0.159000
      3 C3          -4.0870    -1.4690     0.1110 ca         1 SK8       0.175000
      4 C4          -3.2610    -2.3780    -0.5220 ca         1 SK8      -0.159000
      5 C5          -1.8940    -2.1540    -0.5180 ca         1 SK8      -0.063000
      6 C6          -1.3480    -1.0320     0.1070 ca         1 SK8      -0.129500
      7 C7           0.1010    -0.8300     0.1020 cc         1 SK8       0.326500
      8 C8           0.8200     0.3500     0.0590 cd         1 SK8      -0.127000
      9 N9           2.1350    -0.0460     0.1120 na         1 SK8      -0.172500
     10 C10          2.1440    -1.3880     0.1660 cd         1 SK8       0.504800
     11 N11          0.9510    -1.9050     0.1610 nc         1 SK8      -0.632000
     12 S12          3.7490    -2.0650     0.2510 ss         1 SK8      -0.291300
     13 C13          4.4210    -0.4460    -0.2840 c5         1 SK8       0.012600
     14 C14          3.4190     0.6190     0.1630 c5         1 SK8       0.077600
     15 C15          0.4150     1.7430    -0.0800 ca         1 SK8       0.028000
     16 C16         -0.5810     2.1160    -0.9820 ca         1 SK8      -0.154000
     17 C17         -0.9340     3.4500    -1.0830 ca         1 SK8       0.334900
     18 N18         -0.3690     4.4210    -0.3730 nb         1 SK8      -0.657000
     19 C19          0.5820     4.0680     0.4820 ca         1 SK8       0.334900
     20 C20          1.0040     2.7610     0.6690 ca         1 SK8      -0.154000
     21 F21         -5.4100    -1.6760     0.1090 f          1 SK8      -0.178000
     22 H1          -1.8210     0.7100     1.2840 ha         1 SK8       0.127000
     23 H2          -4.2450     0.3340     1.2600 ha         1 SK8       0.131500
     24 H3          -3.6780    -3.2480    -1.0130 ha         1 SK8       0.131500
     25 H4          -1.2430    -2.8600    -1.0140 ha         1 SK8       0.127000
     26 H5           5.3970    -0.2920     0.1660 h1         1 SK8       0.087700
     27 H6           3.4480     1.4770    -0.5060 h1         1 SK8       0.075700
     28 H7          -1.0690     1.3850    -1.6110 ha         1 SK8       0.129000
     29 H8          -1.7100     3.7490    -1.7790 h4         1 SK8       0.022100
     30 H9           1.0340     4.8620     1.0650 h4         1 SK8       0.022100
     31 H10          1.7630     2.5560     1.4110 ha         1 SK8       0.129000
     32 H11          4.5280    -0.4520    -1.3670 h1         1 SK8       0.087700
     33 H12          3.6300     0.9540     1.1800 h1         1 SK8       0.075700
@<TRIPOS>BOND
     1     1     2 ar  
     2     1     6 ar  
     3     1    22 1   
     4     2     3 ar  
     5     2    23 1   
     6     3     4 ar  
     7     3    21 1   
     8     4     5 ar  
     9     4    24 1   
    10     5     6 ar  
    11     5    25 1   
    12     6     7 1   
    13     7     8 2   
    14     7    11 1   
    15     8     9 1   
    16     8    15 1   
    17     9    10 1   
    18     9    14 1   
    19    10    11 2   
    20    10    12 1   
    21    12    13 1   
    22    13    14 1   
    23    13    26 1   
    24    13    32 1   
    25    14    27 1   
    26    14    33 1   
    27    15    16 ar  
    28    15    20 ar  
    29    16    17 ar  
    30    16    28 1   
    31    17    18 ar  
    32    17    29 1   
    33    18    19 ar  
    34    19    20 ar  
    35    19    30 1   
    36    20    31 1   
@<TRIPOS>SUBSTRUCTURE
     1 SK8         1 TEMP              0 ****  ****    0 ROOT
