@<TRIPOS>MOLECULE
SK9
   42    44     1     0     0
SMALL
abcg2


@<TRIPOS>ATOM
      1 C01         99.0730    85.9860   119.2770 ca         1 SK9       0.046100
      2 C02         98.8820    87.0870   118.4430 ca         1 SK9       0.124100
      3 C03        100.3200    85.3920   119.3640 ca         1 SK9      -0.148000
      4 C04         99.9700    87.5540   117.7160 ca         1 SK9       0.106000
      5 C05        101.4030    85.8690   118.6330 ca         1 SK9      -0.063300
      6 C06        101.2390    86.9770   117.7950 ca         1 SK9      -0.060300
      7 C07        102.7650    85.1990   118.7080 c3         1 SK9       0.029900
      8 C08        102.4000    87.4910   116.9920 c3         1 SK9      -0.034100
      9 C09        103.1750    84.5600   117.3660 c3         1 SK9       0.176800
     10 C10        102.8990    86.5170   115.9260 c3         1 SK9       0.172800
     11 C11        102.8570    84.2110   119.8480 ca         1 SK9      -0.073300
     12 C12        103.2780    84.6480   121.1010 ca         1 SK9      -0.107000
     13 C13        102.5070    82.8720   119.6940 ca         1 SK9      -0.113000
     14 C14        103.3490    83.7640   122.1670 ca         1 SK9      -0.107000
     15 C15        103.0030    82.4310   121.9950 ca         1 SK9      -0.112000
     16 C16        102.5790    81.9670   120.7520 ca         1 SK9      -0.078300
     17 C17        102.2360    80.5210   120.5440 c3         1 SK9      -0.047800
     18 N01        103.7830    85.4870   116.4310 n3         1 SK9      -0.725600
     19 O01         97.9830    85.5700   119.9620 oh         1 SK9      -0.557100
     20 O02         97.6910    87.7000   118.3230 oh         1 SK9      -0.516100
     21 CL01        99.6630    88.9180   116.6870 cl         1 SK9      -0.185000
     22 H1         100.4380    84.5400   120.0230 ha         1 SK9       0.126000
     23 H2         103.5090    85.9770   118.9150 hc         1 SK9       0.079700
     24 H3         103.2340    87.7480   117.6520 hc         1 SK9       0.064200
     25 H4         102.1250    88.4170   116.4910 hc         1 SK9       0.064200
     26 H5         102.3110    84.0340   116.9250 h1         1 SK9       0.036700
     27 H6         103.9270    83.7960   117.5760 h1         1 SK9       0.036700
     28 H7         103.4690    87.0940   115.1940 h1         1 SK9       0.036200
     29 H8         102.0340    86.0980   115.3840 h1         1 SK9       0.036200
     30 H9         103.5480    85.6880   121.2420 ha         1 SK9       0.116000
     31 H10        102.1600    82.5140   118.7310 ha         1 SK9       0.112000
     32 H11        103.6770    84.1140   123.1380 ha         1 SK9       0.114000
     33 H12        103.0620    81.7460   122.8320 ha         1 SK9       0.112000
     34 H13        103.1190    79.9490   120.2520 hc         1 SK9       0.042367
     35 H14        101.8440    80.0670   121.4550 hc         1 SK9       0.042367
     36 H15        101.4940    80.3930   119.7560 hc         1 SK9       0.042367
     37 H16        105.1290    84.0550   115.7160 h1         1 SK9       0.031367
     38 H17        103.6730    84.2050   114.7220 h1         1 SK9       0.031367
     39 H18        104.9160    85.4630   114.6770 h1         1 SK9       0.031367
     40 H20         98.1950    84.8170   120.5250 ho         1 SK9       0.477000
     41 H21         97.0360    87.2650   118.8830 ho         1 SK9       0.483000
     42 C18        104.3950    84.7660   115.3350 c3         1 SK9       0.155100
@<TRIPOS>BOND
     1     1     2 ar  
     2     1     3 ar  
     3     1    19 1   
     4     2     4 ar  
     5     2    20 1   
     6     3     5 ar  
     7     3    22 1   
     8     4     6 ar  
     9     4    21 1   
    10     5     6 ar  
    11     5     7 1   
    12     6     8 1   
    13     7     9 1   
    14     7    11 1   
    15     7    23 1   
    16     8    10 1   
    17     8    24 1   
    18     8    25 1   
    19     9    18 1   
    20     9    26 1   
    21     9    27 1   
    22    10    18 1   
    23    10    28 1   
    24    10    29 1   
    25    11    12 ar  
    26    11    13 ar  
    27    12    14 ar  
    28    12    30 1   
    29    13    16 ar  
    30    13    31 1   
    31    14    15 ar  
    32    14    32 1   
    33    15    16 ar  
    34    15    33 1   
    35    16    17 1   
    36    17    34 1   
    37    17    35 1   
    38    17    36 1   
    39    18    42 1   
    40    19    40 1   
    41    20    41 1   
    42    37    42 1   
    43    38    42 1   
    44    39    42 1   
@<TRIPOS>SUBSTRUCTURE
     1 SK9         1 TEMP              0 ****  ****    0 ROOT
