@<TRIPOS>MOLECULE
SK9
   42    44     1     0     0
SMALL
No Charge or Current Charge


@<TRIPOS>ATOM
      1 C01         99.0290    86.0070   119.2490 ca         1 SK9       0.046100
      2 C02         98.8500    87.1180   118.4110 ca         1 SK9       0.124100
      3 C03        100.2860    85.3990   119.3480 ca         1 SK9      -0.148000
      4 C04         99.9360    87.6270   117.6680 ca         1 SK9       0.106000
      5 C05        101.3950    85.8900   118.6150 ca         1 SK9      -0.063300
      6 C06        101.2190    87.0200   117.7690 ca         1 SK9      -0.060300
      7 C07        102.7750    85.2040   118.7240 c3         1 SK9       0.029900
      8 C08        102.4150    87.5570   116.9670 c3         1 SK9      -0.034100
      9 C09        103.2130    84.5720   117.3730 c3         1 SK9       0.176800
     10 C10        102.9080    86.5710   115.8890 c3         1 SK9       0.172800
     11 C11        102.8640    84.1970   119.8830 ca         1 SK9      -0.073300
     12 C12        103.2960    84.6350   121.1510 ca         1 SK9      -0.107000
     13 C13        102.5030    82.8400   119.7160 ca         1 SK9      -0.113000
     14 C14        103.3780    83.7360   122.2270 ca         1 SK9      -0.107000
     15 C15        103.0240    82.3890   122.0480 ca         1 SK9      -0.112000
     16 C16        102.5810    81.9360   120.7930 ca         1 SK9      -0.078300
     17 C17        102.1910    80.4790   120.5960 c3         1 SK9      -0.047800
     18 N01        103.8140    85.5000   116.3750 n3         1 SK9      -0.725600
     19 O01         97.9680    85.5160   119.9660 oh         1 SK9      -0.557100
     20 O02         97.6030    87.6800   118.3370 oh         1 SK9      -0.516100
     21 Cl01        99.6440    89.0210   116.6100 cl         1 SK9      -0.185000
     22 H1         100.3890    84.5370   120.0000 ha         1 SK9       0.126000
     23 H2         103.5220    85.9740   118.9470 hc         1 SK9       0.079700
     24 H3         103.2460    87.8130   117.6330 hc         1 SK9       0.064200
     25 H4         102.1820    88.4970   116.4610 hc         1 SK9       0.064200
     26 H5         102.3550    84.0450   116.9330 h1         1 SK9       0.036700
     27 H6         103.9640    83.8050   117.6080 h1         1 SK9       0.036700
     28 H7         103.4450    87.1670   115.1390 h1         1 SK9       0.036200
     29 H8         102.0370    86.1360   115.3790 h1         1 SK9       0.036200
     30 H9         103.5680    85.6770   121.3060 ha         1 SK9       0.116000
     31 H10        102.1490    82.4830   118.7520 ha         1 SK9       0.112000
     32 H11        103.7150    84.0840   123.2010 ha         1 SK9       0.114000
     33 H12        103.0920    81.7000   122.8870 ha         1 SK9       0.112000
     34 H13        103.0350    79.8990   120.2070 hc         1 SK9       0.042367
     35 H14        101.8730    80.0180   121.5390 hc         1 SK9       0.042367
     36 H15        101.3610    80.3810   119.8860 hc         1 SK9       0.042367
     37 H16        105.1690    84.0360   115.6190 h1         1 SK9       0.031367
     38 H17        103.6710    84.2160   114.6750 h1         1 SK9       0.031367
     39 H18        104.9500    85.4490   114.5700 h1         1 SK9       0.031367
     40 H20         98.2690    84.7450   120.4980 ho         1 SK9       0.477000
     41 H21         97.0340    87.1480   118.9380 ho         1 SK9       0.483000
     42 C18        104.4310    84.7610   115.2500 c3         1 SK9       0.155100
@<TRIPOS>BOND
     1     1     2 ar  
     2     1     3 ar  
     3     1    19 1   
     4     2     4 ar  
     5     2    20 1   
     6     3     5 ar  
     7     3    22 1   
     8     4     6 ar  
     9     4    21 1   
    10     5     6 ar  
    11     5     7 1   
    12     6     8 1   
    13     7     9 1   
    14     7    11 1   
    15     7    23 1   
    16     8    10 1   
    17     8    24 1   
    18     8    25 1   
    19     9    18 1   
    20     9    26 1   
    21     9    27 1   
    22    10    18 1   
    23    10    28 1   
    24    10    29 1   
    25    11    12 ar  
    26    11    13 ar  
    27    12    14 ar  
    28    12    30 1   
    29    13    16 ar  
    30    13    31 1   
    31    14    15 ar  
    32    14    32 1   
    33    15    16 ar  
    34    15    33 1   
    35    16    17 1   
    36    17    34 1   
    37    17    35 1   
    38    17    36 1   
    39    18    42 1   
    40    19    40 1   
    41    20    41 1   
    42    37    42 1   
    43    38    42 1   
    44    39    42 1   
@<TRIPOS>SUBSTRUCTURE
     1 SK9         1 TEMP              0 ****  ****    0 ROOT
