@<TRIPOS>MOLECULE
SKA
   21    22     1     0     0
SMALL
No Charge or Current Charge


@<TRIPOS>ATOM
      1 Cl4         -1.3390    -2.0110    -0.0400 cl         1 SKA      -0.182000
      2 C4          -0.6330    -0.3870    -0.0400 ca         1 SKA       0.120000
      3 C5           0.7720    -0.2180    -0.0350 ca         1 SKA      -0.059300
      4 C11          1.7010    -1.4470    -0.0270 c6         1 SKA       0.203100
      5 N10          3.1000    -1.1230    -0.4010 n7         1 SKA      -0.859400
      6 C9           3.6250     0.0320     0.3550 c6         1 SKA       0.158800
      7 C8           2.8320     1.3090     0.0040 c6         1 SKA      -0.030100
      8 C6           1.3150     1.0910    -0.0030 ca         1 SKA      -0.052300
      9 C1           0.4600     2.2080    -0.0000 ca         1 SKA      -0.104000
     10 C2          -0.9330     2.0340    -0.0160 ca         1 SKA      -0.095000
     11 C3          -1.4800     0.7430    -0.0320 ca         1 SKA       0.116000
     12 Cl3         -3.2360     0.5660    -0.0410 cl         1 SKA      -0.176000
     13 H111         1.3200    -2.2090    -0.7230 h1         1 SKA       0.051200
     14 H112         1.6850    -1.8870     0.9820 h1         1 SKA       0.051200
     15 H10          3.6880    -1.9460    -0.2140 hn         1 SKA       0.418000
     16 H91          4.6890     0.1820     0.1190 h1         1 SKA       0.035700
     17 H92          3.5460    -0.1690     1.4340 h1         1 SKA       0.035700
     18 H81          3.1430     1.6620    -0.9890 hc         1 SKA       0.058700
     19 H82          3.0990     2.1070     0.7110 hc         1 SKA       0.058700
     20 H1           0.8760     3.2130     0.0140 ha         1 SKA       0.119000
     21 H2          -1.5890     2.9010    -0.0120 ha         1 SKA       0.132000
@<TRIPOS>BOND
     1     1     2 1   
     2     2     3 ar  
     3     2    11 ar  
     4     3     4 1   
     5     3     8 ar  
     6     4     5 1   
     7     4    13 1   
     8     4    14 1   
     9     5     6 1   
    10     5    15 1   
    11     6     7 1   
    12     6    16 1   
    13     6    17 1   
    14     7     8 1   
    15     7    18 1   
    16     7    19 1   
    17     8     9 ar  
    18     9    10 ar  
    19     9    20 1   
    20    10    11 ar  
    21    10    21 1   
    22    11    12 1   
@<TRIPOS>SUBSTRUCTURE
     1 SKA         1 TEMP              0 ****  ****    0 ROOT
