@<TRIPOS>MOLECULE
SKA
   21    22     1     0     0
SMALL
bcc


@<TRIPOS>ATOM
      1 CL4         -1.2660    -1.9570     0.0180 cl         1 SKA      -0.090400
      2 C4          -0.5880    -0.3680    -0.0150 ca         1 SKA       0.028400
      3 C5           0.7990    -0.2150    -0.0370 ca         1 SKA      -0.059300
      4 C11          1.7040    -1.4210    -0.0370 c6         1 SKA       0.203100
      5 N10          3.0510    -1.0610    -0.4160 n7         1 SKA      -0.804200
      6 C9           3.5610     0.0280     0.3940 c6         1 SKA       0.158800
      7 C8           2.8210     1.2920    -0.0020 c6         1 SKA      -0.030100
      8 C6           1.3320     1.0760    -0.0230 ca         1 SKA      -0.052300
      9 C1           0.4730     2.1710    -0.0200 ca         1 SKA      -0.122000
     10 C2          -0.8990     2.0120    -0.0230 ca         1 SKA      -0.113000
     11 C3          -1.4340     0.7330    -0.0160 ca         1 SKA       0.024400
     12 CL3         -3.1470     0.5310    -0.0050 cl         1 SKA      -0.084400
     13 H111         1.3290    -2.1630    -0.7440 h1         1 SKA       0.051200
     14 H112         1.6470    -1.8870     0.9610 h1         1 SKA       0.051200
     15 H10          3.6440    -1.8750    -0.3250 hn         1 SKA       0.362800
     16 H91          4.6290     0.1450     0.2050 h1         1 SKA       0.035700
     17 H92          3.4400    -0.1510     1.4740 h1         1 SKA       0.035700
     18 H81          3.1520     1.6110    -0.9950 hc         1 SKA       0.058700
     19 H82          3.0620     2.1060     0.6840 hc         1 SKA       0.058700
     20 H1           0.8860     3.1720    -0.0090 ha         1 SKA       0.137000
     21 H2          -1.5560     2.8710    -0.0210 ha         1 SKA       0.150000
@<TRIPOS>BOND
     1     1     2 1   
     2     2     3 ar  
     3     2    11 ar  
     4     3     4 1   
     5     3     8 ar  
     6     4     5 1   
     7     4    13 1   
     8     4    14 1   
     9     5     6 1   
    10     5    15 1   
    11     6     7 1   
    12     6    16 1   
    13     6    17 1   
    14     7     8 1   
    15     7    18 1   
    16     7    19 1   
    17     8     9 ar  
    18     9    10 ar  
    19     9    20 1   
    20    10    11 ar  
    21    10    21 1   
    22    11    12 1   
@<TRIPOS>SUBSTRUCTURE
     1 SKA         1 TEMP              0 ****  ****    0 ROOT
