@<TRIPOS>MOLECULE
SKB
   31    32     1     0     0
SMALL
bcc


@<TRIPOS>ATOM
      1 FAR         46.9150   159.9170    30.9350 f          1 SKB      -0.233300
      2 CAQ         47.5340   158.9090    31.5660 c3         1 SKB       0.722200
      3 FAS         47.8420   159.3590    32.7900 f          1 SKB      -0.233300
      4 FAT         46.6370   157.9320    31.7220 f          1 SKB      -0.233300
      5 CAN         48.7540   158.4610    30.8220 ca         1 SKB      -0.210300
      6 CAO         48.8770   157.1640    30.3570 ca         1 SKB      -0.030000
      7 CAM         49.7770   159.3840    30.6060 ca         1 SKB      -0.058000
      8 CAL         50.9130   158.9990    29.9170 ca         1 SKB      -0.148000
      9 CAK         51.0280   157.7040    29.4290 ca         1 SKB      -0.064000
     10 CAJ         50.0140   156.7770    29.6460 ca         1 SKB      -0.170600
     11 CAI         50.1090   155.3600    29.1810 c          1 SKB       0.583900
     12 OAP         49.4380   154.5010    29.7250 o          1 SKB      -0.526100
     13 CAH         51.0070   155.0610    28.0550 ce         1 SKB      -0.267200
     14 CAG         51.2090   153.7990    27.6480 cf         1 SKB      -0.014200
     15 CAB         52.0480   153.3620    26.5400 ca         1 SKB      -0.083800
     16 CAA         52.8140   154.2430    25.7670 ca         1 SKB      -0.101500
     17 CAF         53.5890   153.7700    24.7240 ca         1 SKB      -0.133000
     18 CAE         53.6170   152.4100    24.4300 ca         1 SKB      -0.110000
     19 CAD         52.8650   151.5250    25.1880 ca         1 SKB      -0.133000
     20 CAC         52.0880   151.9980    26.2350 ca         1 SKB      -0.101500
     21 H1          48.0940   156.4370    30.5270 ha         1 SKB       0.168000
     22 H2          49.6940   160.3990    30.9710 ha         1 SKB       0.148000
     23 H3          51.7120   159.7100    29.7550 ha         1 SKB       0.142000
     24 H4          51.9300   157.4280    28.8990 ha         1 SKB       0.139000
     25 H5          51.4810   155.8890    27.5450 ha         1 SKB       0.134000
     26 H6          50.7020   153.0030    28.1860 ha         1 SKB       0.143000
     27 H7          52.8120   155.3040    25.9800 ha         1 SKB       0.132500
     28 H8          54.1770   154.4630    24.1360 ha         1 SKB       0.135000
     29 H9          54.2260   152.0450    23.6120 ha         1 SKB       0.134000
     30 H10         52.8830   150.4660    24.9660 ha         1 SKB       0.135000
     31 H11         51.5020   151.3050    26.8250 ha         1 SKB       0.132500
@<TRIPOS>BOND
     1     1     2 1   
     2     2     3 1   
     3     2     4 1   
     4     2     5 1   
     5     5     6 ar  
     6     5     7 ar  
     7     6    10 ar  
     8     6    21 1   
     9     7     8 ar  
    10     7    22 1   
    11     8     9 ar  
    12     8    23 1   
    13     9    10 ar  
    14     9    24 1   
    15    10    11 1   
    16    11    12 2   
    17    11    13 1   
    18    13    14 2   
    19    13    25 1   
    20    14    15 1   
    21    14    26 1   
    22    15    16 ar  
    23    15    20 ar  
    24    16    17 ar  
    25    16    27 1   
    26    17    18 ar  
    27    17    28 1   
    28    18    19 ar  
    29    18    29 1   
    30    19    20 ar  
    31    19    30 1   
    32    20    31 1   
@<TRIPOS>SUBSTRUCTURE
     1 SKB         1 TEMP              0 ****  ****    0 ROOT
