@<TRIPOS>MOLECULE
SKB
   31    32     1     0     0
SMALL
No Charge or Current Charge


@<TRIPOS>ATOM
      1 FAR         47.2450   160.2740    31.6880 f          1 SKB      -0.112000
      2 CAQ         47.4960   158.9450    31.7200 c3         1 SKB       0.358300
      3 FAS         47.6630   158.6060    33.0170 f          1 SKB      -0.112000
      4 FAT         46.3690   158.3300    31.2930 f          1 SKB      -0.112000
      5 CAN         48.7180   158.5530    30.8810 ca         1 SKB      -0.210300
      6 CAO         48.8640   157.2250    30.4230 ca         1 SKB      -0.012000
      7 CAM         49.7200   159.4970    30.5770 ca         1 SKB      -0.040000
      8 CAL         50.8390   159.1180    29.8210 ca         1 SKB      -0.130000
      9 CAK         50.9740   157.7990    29.3590 ca         1 SKB      -0.046000
     10 CAJ         49.9800   156.8350    29.6490 ca         1 SKB      -0.170600
     11 CAI         50.0860   155.3960    29.1820 c          1 SKB       0.583900
     12 OAP         49.4310   154.5210    29.7360 o          1 SKB      -0.526100
     13 CAH         50.9990   155.0360    28.0510 ce         1 SKB      -0.317200
     14 CAG         51.2170   153.7620    27.6070 cf         1 SKB      -0.064200
     15 CAB         52.0760   153.2880    26.5010 ca         1 SKB      -0.083800
     16 CAA         52.8420   154.1790    25.7160 ca         1 SKB      -0.083500
     17 CAF         53.6500   153.6960    24.6710 ca         1 SKB      -0.115000
     18 CAE         53.7020   152.3200    24.3980 ca         1 SKB      -0.092000
     19 CAD         52.9450   151.4260    25.1710 ca         1 SKB      -0.115000
     20 CAC         52.1380   151.9080    26.2160 ca         1 SKB      -0.083500
     21 H1          48.0960   156.4910    30.6670 ha         1 SKB       0.150000
     22 H2          49.6430   160.5240    30.9290 ha         1 SKB       0.130000
     23 H3          51.6130   159.8490    29.5990 ha         1 SKB       0.124000
     24 H4          51.8700   157.5410    28.8020 ha         1 SKB       0.121000
     25 H5          51.4940   155.8590    27.5480 ha         1 SKB       0.184000
     26 H6          50.6920   152.9570    28.1280 ha         1 SKB       0.193000
     27 H7          52.8210   155.2480    25.9060 ha         1 SKB       0.114500
     28 H8          54.2350   154.3910    24.0730 ha         1 SKB       0.117000
     29 H9          54.3280   151.9480    23.5890 ha         1 SKB       0.116000
     30 H10         52.9840   150.3590    24.9620 ha         1 SKB       0.117000
     31 H11         51.5580   151.2010    26.8060 ha         1 SKB       0.114500
@<TRIPOS>BOND
     1     1     2 1   
     2     2     3 1   
     3     2     4 1   
     4     2     5 1   
     5     5     6 ar  
     6     5     7 ar  
     7     6    10 ar  
     8     6    21 1   
     9     7     8 ar  
    10     7    22 1   
    11     8     9 ar  
    12     8    23 1   
    13     9    10 ar  
    14     9    24 1   
    15    10    11 1   
    16    11    12 2   
    17    11    13 1   
    18    13    14 2   
    19    13    25 1   
    20    14    15 1   
    21    14    26 1   
    22    15    16 ar  
    23    15    20 ar  
    24    16    17 ar  
    25    16    27 1   
    26    17    18 ar  
    27    17    28 1   
    28    18    19 ar  
    29    18    29 1   
    30    19    20 ar  
    31    19    30 1   
    32    20    31 1   
@<TRIPOS>SUBSTRUCTURE
     1 SKB         1 TEMP              0 ****  ****    0 ROOT
