@<TRIPOS>MOLECULE
SKD
   36    37     1     0     0
SMALL
abcg2


@<TRIPOS>ATOM
      1 C1          -2.6530    -0.1530    -1.0580 c          1 SKD       0.744000
      2 C2          -1.3030     0.2400    -0.4160 c5         1 SKD       0.237000
      3 C3          -1.4760     1.1780     0.7780 c6         1 SKD      -0.146400
      4 C4          -0.1380     1.5510     1.4250 c6         1 SKD       0.155300
      5 C5           0.8070     0.3320     1.4560 c6         1 SKD       0.092700
      6 C6           0.6910    -0.5030     0.1800 c5         1 SKD       0.108300
      7 C7           0.8820     0.2890    -1.1140 c5         1 SKD       0.120300
      8 C8           1.3340    -0.6160    -2.2660 c3         1 SKD       0.149300
      9 C9           1.2200     0.0930    -3.6040 c3         1 SKD       0.127600
     10 C11          0.5570    -1.3450     4.8430 c3         1 SKD      -0.180100
     11 N5           0.5030    -0.5250     2.5800 ns         1 SKD      -0.493900
     12 O1A         -2.8400     0.1710    -2.2390 o          1 SKD      -0.695000
     13 O1B         -3.4260    -0.7550    -0.2920 o          1 SKD      -0.695000
     14 O4           0.5410     2.5880     0.7510 oh         1 SKD      -0.669000
     15 O6          -0.6510    -0.9320     0.0350 os         1 SKD      -0.437000
     16 O7          -0.4140     0.8010    -1.3560 os         1 SKD      -0.442000
     17 O8           2.6400    -1.0850    -2.0150 oh         1 SKD      -0.718000
     18 O9           1.6190    -0.7950    -4.6220 oh         1 SKD      -0.659000
     19 O10          1.7820     0.5700     4.0830 o          1 SKD      -0.626100
     20 H31         -2.1050     0.6760     1.5150 hc         1 SKD       0.063700
     21 H32         -2.0180     2.0830     0.4830 hc         1 SKD       0.063700
     22 H4          -0.3330     1.8530     2.4620 h1         1 SKD       0.029700
     23 H5           1.8360     0.6860     1.5590 h1         1 SKD       0.081700
     24 H6           1.3430    -1.3770     0.2420 h1         1 SKD       0.089700
     25 H7           1.5960     1.1120    -1.0010 h1         1 SKD       0.058700
     26 H8           0.6950    -1.5060    -2.2870 h1         1 SKD       0.108700
     27 H91          0.1850     0.4250    -3.7380 h1         1 SKD       0.038200
     28 H92          1.8520     0.9960    -3.5870 h1         1 SKD       0.038200
     29 H111         0.5530    -0.8960     5.8340 hc         1 SKD       0.054367
     30 H112        -0.4320    -1.7510     4.6350 hc         1 SKD       0.054367
     31 H113         1.2620    -2.1780     4.8570 hc         1 SKD       0.054367
     32 HN5         -0.1970    -1.2390     2.4500 hn         1 SKD       0.333500
     33 HO4         -0.1020     3.2500     0.4810 ho         1 SKD       0.446000
     34 HO8          3.2460    -0.3360    -2.0460 ho         1 SKD       0.486000
     35 HO9          1.4900    -0.3530    -5.4660 ho         1 SKD       0.429000
     36 C10          1.0000    -0.3320     3.8160 c          1 SKD       0.596100
@<TRIPOS>BOND
     1     1     2 1   
     2     1    12 1   
     3     1    13 1   
     4     2     3 1   
     5     2    15 1   
     6     2    16 1   
     7     3     4 1   
     8     3    20 1   
     9     3    21 1   
    10     4     5 1   
    11     4    14 1   
    12     4    22 1   
    13     5     6 1   
    14     5    11 1   
    15     5    23 1   
    16     6     7 1   
    17     6    15 1   
    18     6    24 1   
    19     7     8 1   
    20     7    16 1   
    21     7    25 1   
    22     8     9 1   
    23     8    17 1   
    24     8    26 1   
    25     9    18 1   
    26     9    27 1   
    27     9    28 1   
    28    10    29 1   
    29    10    30 1   
    30    10    31 1   
    31    10    36 1   
    32    11    32 1   
    33    11    36 1   
    34    14    33 1   
    35    17    34 1   
    36    18    35 1   
    37    19    36 2   
@<TRIPOS>SUBSTRUCTURE
     1 SKD         1 TEMP              0 ****  ****    0 ROOT
