@<TRIPOS>MOLECULE
SKD
   36    37     1     0     0
SMALL
No Charge or Current Charge


@<TRIPOS>ATOM
      1 C1          -2.8700    -0.2860    -0.9880 c          1 SKD       0.744000
      2 C2          -1.4330     0.1550    -0.4120 c5         1 SKD       0.237000
      3 C3          -1.5800     1.2140     0.7360 c6         1 SKD      -0.146400
      4 C4          -0.2440     1.6320     1.4110 c6         1 SKD       0.155300
      5 C5           0.7390     0.4230     1.5100 c6         1 SKD       0.092700
      6 C6           0.6620    -0.4750     0.2380 c5         1 SKD       0.108300
      7 C7           0.8190     0.2950    -1.1150 c5         1 SKD       0.120300
      8 C8           1.4160    -0.5720    -2.2590 c3         1 SKD       0.149300
      9 C9           1.4530     0.1540    -3.6290 c3         1 SKD       0.127600
     10 C11          0.6540    -1.3790     4.9290 c3         1 SKD      -0.180100
     11 N5           0.4470    -0.3960     2.7040 ns         1 SKD      -0.493900
     12 O1A         -3.3330     0.2860    -1.9720 o          1 SKD      -0.695000
     13 O1B         -3.4620    -1.2380    -0.4840 o          1 SKD      -0.695000
     14 O4           0.3470     2.7400     0.7180 oh         1 SKD      -0.669000
     15 O6          -0.6870    -0.9720     0.1110 os         1 SKD      -0.437000
     16 O7          -0.5530     0.6560    -1.4630 os         1 SKD      -0.442000
     17 O8           2.7630    -0.9740    -1.9390 oh         1 SKD      -0.718000
     18 O9           2.1580    -0.6530    -4.5930 oh         1 SKD      -0.659000
     19 O10          2.1590     0.2860     4.0450 o          1 SKD      -0.626100
     20 H31         -2.2340     0.7820     1.5050 hc         1 SKD       0.063700
     21 H32         -2.1170     2.0950     0.3600 hc         1 SKD       0.063700
     22 H4          -0.4760     1.9650     2.4340 h1         1 SKD       0.029700
     23 H5           1.7640     0.8140     1.5980 h1         1 SKD       0.081700
     24 H6           1.3660    -1.3120     0.3360 h1         1 SKD       0.089700
     25 H7           1.4280     1.2020    -1.0090 h1         1 SKD       0.058700
     26 H8           0.7730    -1.4580    -2.3720 h1         1 SKD       0.108700
     27 H91          0.4240     0.3400    -3.9660 h1         1 SKD       0.038200
     28 H92          1.9460     1.1290    -3.5120 h1         1 SKD       0.038200
     29 H111         1.2560    -1.3670     5.8450 hc         1 SKD       0.054367
     30 H112        -0.3980    -1.1510     5.1350 hc         1 SKD       0.054367
     31 H113         0.5940    -2.3860     4.4990 hc         1 SKD       0.054367
     32 HN5         -0.3440    -1.0280     2.6570 hn         1 SKD       0.333500
     33 HO4         -0.3220     3.4580     0.7090 ho         1 SKD       0.446000
     34 HO8          3.1690    -1.1530    -2.8220 ho         1 SKD       0.486000
     35 HO9          2.0930    -0.1920    -5.4590 ho         1 SKD       0.429000
     36 C10          1.1740    -0.4160     3.8700 c          1 SKD       0.596100
@<TRIPOS>BOND
     1     1     2 1   
     2     1    12 1   
     3     1    13 1   
     4     2     3 1   
     5     2    15 1   
     6     2    16 1   
     7     3     4 1   
     8     3    20 1   
     9     3    21 1   
    10     4     5 1   
    11     4    14 1   
    12     4    22 1   
    13     5     6 1   
    14     5    11 1   
    15     5    23 1   
    16     6     7 1   
    17     6    15 1   
    18     6    24 1   
    19     7     8 1   
    20     7    16 1   
    21     7    25 1   
    22     8     9 1   
    23     8    17 1   
    24     8    26 1   
    25     9    18 1   
    26     9    27 1   
    27     9    28 1   
    28    10    29 1   
    29    10    30 1   
    30    10    31 1   
    31    10    36 1   
    32    11    32 1   
    33    11    36 1   
    34    14    33 1   
    35    17    34 1   
    36    18    35 1   
    37    19    36 2   
@<TRIPOS>SUBSTRUCTURE
     1 SKD         1 TEMP              0 ****  ****    0 ROOT
