@<TRIPOS>MOLECULE
SKE
   39    41     1     0     0
SMALL
No Charge or Current Charge


@<TRIPOS>ATOM
      1 S           -6.5850    -0.5220    -0.2850 sy         1 SKE       1.131600
      2 C1           1.4380     1.9770     0.2510 cc         1 SKE       0.775400
      3 F1           3.6340    -0.4510    -2.0630 f          1 SKE      -0.159500
      4 N1           1.6600     3.2880     0.3060 nv         1 SKE      -1.069900
      5 O1          -7.1030    -1.8880    -0.3590 o          1 SKE      -0.549000
      6 C2           0.4030     0.2390     0.1300 cd         1 SKE       0.849900
      7 F2           5.8280     0.3650     2.1170 f          1 SKE      -0.159500
      8 N2           0.2040     1.5850     0.2200 nd         1 SKE      -0.816000
      9 O2          -7.0180     0.5450    -1.1830 o          1 SKE      -0.549000
     10 C3          -1.9820    -0.5600     0.0400 ca         1 SKE       0.386000
     11 N3          -0.5970    -0.6360     0.1460 nu         1 SKE      -0.925900
     12 O3           4.3010     2.2770     0.5290 o          1 SKE      -0.545100
     13 C4          -2.7360    -1.6670     0.4570 ca         1 SKE      -0.188000
     14 N4          -7.0080     0.0180     1.1980 n8         1 SKE      -0.997100
     15 C5          -4.1380    -1.6600     0.3640 ca         1 SKE       0.026500
     16 N5           1.6500    -0.1560     0.1600 nc         1 SKE      -0.600800
     17 C6          -4.7980    -0.5330    -0.1610 ca         1 SKE      -0.323500
     18 N6           2.3980     0.9920     0.2250 n          1 SKE      -0.098500
     19 C7          -4.0480     0.5770    -0.5960 ca         1 SKE       0.026500
     20 C8          -2.6470     0.5570    -0.4960 ca         1 SKE      -0.188000
     21 C9           3.7980     1.1800     0.3030 c          1 SKE       0.636500
     22 C10          4.6660    -0.0150     0.0590 ca         1 SKE      -0.227600
     23 C11          4.5230    -0.7950    -1.1050 ca         1 SKE       0.250000
     24 C12          5.3490    -1.9090    -1.3230 ca         1 SKE      -0.177000
     25 C13          6.3320    -2.2560    -0.3830 ca         1 SKE      -0.035000
     26 C14          6.4900    -1.4730     0.7720 ca         1 SKE      -0.177000
     27 C15          5.6660    -0.3570     0.9860 ca         1 SKE       0.250000
     28 HN1          2.5840     3.5600     0.6270 hn         1 SKE       0.524500
     29 HN1A         0.8810     3.8320     0.6530 hn         1 SKE       0.524500
     30 HN3         -0.2250    -1.5640     0.3070 hn         1 SKE       0.515000
     31 H4          -2.2380    -2.5420     0.8650 ha         1 SKE       0.135000
     32 HN4         -7.6280     0.7860     0.9530 hn         1 SKE       0.468000
     33 HN4A        -6.1580     0.4790     1.5100 hn         1 SKE       0.468000
     34 H5          -4.7030    -2.5280     0.7010 ha         1 SKE       0.135500
     35 H7          -4.5400     1.4540    -1.0170 ha         1 SKE       0.135500
     36 H8          -2.0880     1.4130    -0.8570 ha         1 SKE       0.135000
     37 H12          5.2320    -2.4970    -2.2300 ha         1 SKE       0.143000
     38 H13          6.9730    -3.1200    -0.5520 ha         1 SKE       0.126000
     39 H14          7.2500    -1.7300     1.5050 ha         1 SKE       0.143000
@<TRIPOS>BOND
     1     1     5 2   
     2     1     9 2   
     3     1    14 1   
     4     1    17 1   
     5     2     4 1   
     6     2     8 2   
     7     2    18 1   
     8     3    23 1   
     9     4    28 1   
    10     4    29 1   
    11     6     8 1   
    12     6    11 1   
    13     6    16 2   
    14     7    27 1   
    15    10    11 1   
    16    10    13 ar  
    17    10    20 ar  
    18    11    30 1   
    19    12    21 2   
    20    13    15 ar  
    21    13    31 1   
    22    14    32 1   
    23    14    33 1   
    24    15    17 ar  
    25    15    34 1   
    26    16    18 1   
    27    17    19 ar  
    28    18    21 1   
    29    19    20 ar  
    30    19    35 1   
    31    20    36 1   
    32    21    22 1   
    33    22    23 ar  
    34    22    27 ar  
    35    23    24 ar  
    36    24    25 ar  
    37    24    37 1   
    38    25    26 ar  
    39    25    38 1   
    40    26    27 ar  
    41    26    39 1   
@<TRIPOS>SUBSTRUCTURE
     1 SKE         1 TEMP              0 ****  ****    0 ROOT
