@<TRIPOS>MOLECULE
SKE
   39    41     1     0     0
SMALL
abcg2


@<TRIPOS>ATOM
      1 S           -6.3590    -0.4160    -0.3190 sy         1 SKE       1.131600
      2 C1           1.4710     2.1560     0.1570 cc         1 SKE       0.775400
      3 F1           3.6360    -0.3950    -2.1050 f          1 SKE      -0.159500
      4 N1           1.7520     3.4500     0.1180 nv         1 SKE      -1.069900
      5 O1          -6.8280    -1.7080    -0.8030 o          1 SKE      -0.549000
      6 C2           0.5090     0.2940     0.1870 cd         1 SKE       0.849900
      7 F2           5.4530     0.2670     2.1380 f          1 SKE      -0.159500
      8 N2           0.2700     1.6290     0.1580 nd         1 SKE      -0.816000
      9 O2          -6.7120     0.7740    -1.0830 o          1 SKE      -0.549000
     10 C3          -1.8360    -0.5150     0.1120 ca         1 SKE       0.386000
     11 N3          -0.4710    -0.6510     0.2350 nu         1 SKE      -0.925900
     12 O3           4.3360     2.3200     0.2320 o          1 SKE      -0.545100
     13 C4          -2.6110    -1.6610     0.3590 ca         1 SKE      -0.188000
     14 N4          -6.8510    -0.3310     1.2600 n8         1 SKE      -0.997100
     15 C5          -3.9810    -1.6300     0.2360 ca         1 SKE       0.026500
     16 N5           1.7630    -0.0660     0.1990 nc         1 SKE      -0.600800
     17 C6          -4.6110    -0.4480    -0.1410 ca         1 SKE      -0.323500
     18 N6           2.4090     1.1450     0.1790 n          1 SKE      -0.098500
     19 C7          -3.8610     0.6920    -0.3900 ca         1 SKE       0.026500
     20 C8          -2.4830     0.6670    -0.2630 ca         1 SKE      -0.188000
     21 C9           3.7760     1.2510     0.1530 c          1 SKE       0.636500
     22 C10          4.5140    -0.0350     0.0240 ca         1 SKE      -0.227600
     23 C11          4.4400    -0.8100    -1.1230 ca         1 SKE       0.250000
     24 C12          5.1780    -1.9620    -1.2890 ca         1 SKE      -0.177000
     25 C13          6.0180    -2.3580    -0.2570 ca         1 SKE      -0.035000
     26 C14          6.1250    -1.6160     0.9100 ca         1 SKE      -0.177000
     27 C15          5.3750    -0.4630     1.0220 ca         1 SKE       0.250000
     28 HN1          2.6920     3.7910     0.2280 hn         1 SKE       0.524500
     29 HN1A         0.9920     4.1070     0.1570 hn         1 SKE       0.524500
     30 HN3         -0.1320    -1.5900     0.3820 hn         1 SKE       0.515000
     31 H4          -2.1250    -2.5830     0.6520 ha         1 SKE       0.135000
     32 HN4         -7.8400    -0.5490     1.3480 hn         1 SKE       0.468000
     33 HN4A        -6.6610     0.5760     1.6730 hn         1 SKE       0.468000
     34 H5          -4.5510    -2.5280     0.4340 ha         1 SKE       0.135500
     35 H7          -4.3380     1.6130    -0.6930 ha         1 SKE       0.135500
     36 H8          -1.9190     1.5640    -0.4610 ha         1 SKE       0.135000
     37 H12          5.1030    -2.5340    -2.2030 ha         1 SKE       0.143000
     38 H13          6.6020    -3.2610    -0.3650 ha         1 SKE       0.126000
     39 H14          6.7750    -1.9250     1.7170 ha         1 SKE       0.143000
@<TRIPOS>BOND
     1     1     5 2   
     2     1     9 2   
     3     1    14 1   
     4     1    17 1   
     5     2     4 1   
     6     2     8 2   
     7     2    18 1   
     8     3    23 1   
     9     4    28 1   
    10     4    29 1   
    11     6     8 1   
    12     6    11 1   
    13     6    16 2   
    14     7    27 1   
    15    10    11 1   
    16    10    13 ar  
    17    10    20 ar  
    18    11    30 1   
    19    12    21 2   
    20    13    15 ar  
    21    13    31 1   
    22    14    32 1   
    23    14    33 1   
    24    15    17 ar  
    25    15    34 1   
    26    16    18 1   
    27    17    19 ar  
    28    18    21 1   
    29    19    20 ar  
    30    19    35 1   
    31    20    36 1   
    32    21    22 1   
    33    22    23 ar  
    34    22    27 ar  
    35    23    24 ar  
    36    24    25 ar  
    37    24    37 1   
    38    25    26 ar  
    39    25    38 1   
    40    26    27 ar  
    41    26    39 1   
@<TRIPOS>SUBSTRUCTURE
     1 SKE         1 TEMP              0 ****  ****    0 ROOT
