@<TRIPOS>MOLECULE
SKF
   26    27     1     0     0
SMALL
No Charge or Current Charge


@<TRIPOS>ATOM
      1 C4          -1.9130    -0.0540    -0.8700 ca         1 SKF      -0.134000
      2 C5          -1.6360    -0.0190     0.5070 ca         1 SKF      -0.001000
      3 C6          -0.3020     0.0460     0.9550 ca         1 SKF      -0.273500
      4 C7           0.7510     0.0740     0.0150 ca         1 SKF      -0.015000
      5 S            0.0500     0.0900     2.7150 sy         1 SKF       1.124600
      6 C8           0.4740     0.0380    -1.3650 ca         1 SKF      -0.098300
      7 C9          -0.8670    -0.0210    -1.8100 ca         1 SKF      -0.004300
      8 O1          -1.0950     0.6190     3.4560 o          1 SKF      -0.546000
      9 O2           1.4210     0.5410     2.9410 o          1 SKF      -0.546000
     10 N            0.1000    -1.5030     3.0860 n8         1 SKF      -0.999100
     11 C1           1.6350     0.0930    -2.3680 c6         1 SKF       0.203100
     12 C2           0.0160     0.2840    -4.2010 c6         1 SKF       0.158800
     13 C3          -1.1900    -0.0820    -3.3070 c6         1 SKF      -0.039100
     14 N1           1.2440    -0.3800    -3.7170 n7         1 SKF      -0.858400
     15 HC4         -2.9450    -0.1090    -1.2070 ha         1 SKF       0.118000
     16 HC5         -2.4590    -0.0460     1.2190 ha         1 SKF       0.137000
     17 HC7          1.7860     0.1290     0.3500 ha         1 SKF       0.134000
     18 H1N          0.9980    -1.5630     3.5590 hn         1 SKF       0.471500
     19 H2N          0.2730    -1.9310     2.1800 hn         1 SKF       0.471500
     20 HC11         2.4730    -0.5160    -1.9980 h1         1 SKF       0.042700
     21 HC12         1.9890     1.1330    -2.4340 h1         1 SKF       0.042700
     22 HC21        -0.1900    -0.0190    -5.2380 h1         1 SKF       0.036200
     23 HC22         0.1620     1.3750    -4.1940 h1         1 SKF       0.036200
     24 HC31        -1.5210    -1.1000    -3.5530 hc         1 SKF       0.061200
     25 HC32        -2.0320     0.5820    -3.5410 hc         1 SKF       0.061200
     26 HN1          2.0150    -0.1790    -4.3670 hn         1 SKF       0.417000
@<TRIPOS>BOND
     1     1     2 ar  
     2     1     7 ar  
     3     1    15 1   
     4     2     3 ar  
     5     2    16 1   
     6     3     4 ar  
     7     3     5 1   
     8     4     6 ar  
     9     4    17 1   
    10     5     8 2   
    11     5     9 2   
    12     5    10 1   
    13     6     7 ar  
    14     6    11 1   
    15     7    13 1   
    16    10    18 1   
    17    10    19 1   
    18    11    14 1   
    19    11    20 1   
    20    11    21 1   
    21    12    13 1   
    22    12    14 1   
    23    12    22 1   
    24    12    23 1   
    25    13    24 1   
    26    13    25 1   
    27    14    26 1   
@<TRIPOS>SUBSTRUCTURE
     1 SKF         1 TEMP              0 ****  ****    0 ROOT
