@<TRIPOS>MOLECULE
SKF
   26    27     1     0     0
SMALL
bcc


@<TRIPOS>ATOM
      1 C4          -1.8420    -0.1060    -0.8540 ca         1 SKF      -0.152000
      2 C5          -1.5390    -0.0790     0.4930 ca         1 SKF      -0.019000
      3 C6          -0.2040     0.0160     0.8700 ca         1 SKF      -0.273500
      4 C7           0.8050     0.0770    -0.0740 ca         1 SKF      -0.033000
      5 S            0.1980     0.0710     2.5900 sy         1 SKF       1.266200
      6 C8           0.4920     0.0370    -1.4300 ca         1 SKF      -0.098300
      7 C9          -0.8420    -0.0460    -1.8270 ca         1 SKF      -0.004300
      8 O1          -0.8510     0.7770     3.3130 o          1 SKF      -0.616800
      9 O2           1.5670     0.5530     2.7160 o          1 SKF      -0.616800
     10 N            0.0370    -1.5200     3.0110 n8         1 SKF      -0.888700
     11 C1           1.5990     0.1210    -2.4480 c6         1 SKF       0.203100
     12 C2          -0.0450     0.3640    -4.1630 c6         1 SKF       0.158800
     13 C3          -1.2050    -0.0760    -3.2860 c6         1 SKF      -0.039100
     14 N1           1.1490    -0.3450    -3.7410 n7         1 SKF      -0.803200
     15 HC4         -2.8790    -0.1680    -1.1620 ha         1 SKF       0.136000
     16 HC5         -2.3280    -0.1240     1.2300 ha         1 SKF       0.155000
     17 HC7          1.8410     0.1540     0.2310 ha         1 SKF       0.152000
     18 H1N         -0.0400    -1.6290     4.0180 hn         1 SKF       0.416300
     19 H2N          0.7950    -2.0960     2.6560 hn         1 SKF       0.416300
     20 HC11         2.4420    -0.4900    -2.1170 h1         1 SKF       0.042700
     21 HC12         1.9620     1.1610    -2.4710 h1         1 SKF       0.042700
     22 HC21        -0.2550     0.1230    -5.2050 h1         1 SKF       0.036200
     23 HC22         0.0690     1.4580    -4.1010 h1         1 SKF       0.036200
     24 HC31        -1.5020    -1.0940    -3.5550 hc         1 SKF       0.061200
     25 HC32        -2.0760     0.5590    -3.4640 hc         1 SKF       0.061200
     26 HN1          1.8890    -0.2150    -4.4170 hn         1 SKF       0.361800
@<TRIPOS>BOND
     1     1     2 ar  
     2     1     7 ar  
     3     1    15 1   
     4     2     3 ar  
     5     2    16 1   
     6     3     4 ar  
     7     3     5 1   
     8     4     6 ar  
     9     4    17 1   
    10     5     8 2   
    11     5     9 2   
    12     5    10 1   
    13     6     7 ar  
    14     6    11 1   
    15     7    13 1   
    16    10    18 1   
    17    10    19 1   
    18    11    14 1   
    19    11    20 1   
    20    11    21 1   
    21    12    13 1   
    22    12    14 1   
    23    12    22 1   
    24    12    23 1   
    25    13    24 1   
    26    13    25 1   
    27    14    26 1   
@<TRIPOS>SUBSTRUCTURE
     1 SKF         1 TEMP              0 ****  ****    0 ROOT
