@<TRIPOS>MOLECULE
SKG
   24    23     1     0     0
SMALL
No Charge or Current Charge


@<TRIPOS>ATOM
      1 N            7.8950   -29.6260   -40.0860 n8         1 SKG      -0.869800
      2 CA           8.0010   -31.0820   -40.4880 c3         1 SKG       0.028500
      3 C            8.5250   -31.3700   -41.9700 c          1 SKG       0.926600
      4 O            7.8960   -30.9360   -42.9330 o          1 SKG      -0.834800
      5 CB           6.6920   -31.8550   -40.0850 c3         1 SKG      -0.019700
      6 CG           6.8630   -33.4130   -39.9650 c3         1 SKG      -0.048700
      7 CD1          5.7600   -34.0520   -39.0810 c3         1 SKG      -0.083100
      8 CD2          6.9630   -34.1810   -41.3090 c3         1 SKG      -0.083100
      9 OXT          9.6440   -31.8590   -42.1020 o          1 SKG      -0.834800
     10 CAE          5.4410   -31.4280   -40.9040 c3         1 SKG      -0.066100
     11 H1           7.6500   -29.5680   -39.0930 hn         1 SKG       0.311300
     12 H2           8.8180   -29.1880   -40.1560 hn         1 SKG       0.311300
     13 H4           8.7840   -31.4740   -39.8250 h1         1 SKG      -0.002300
     14 H5           6.4830   -31.5200   -39.0600 hc         1 SKG      -0.000300
     15 H6           7.8080   -33.5860   -39.4340 hc         1 SKG       0.050700
     16 H7           5.6930   -33.5470   -38.1100 hc         1 SKG       0.022700
     17 H8           4.7790   -34.0000   -39.5670 hc         1 SKG       0.022700
     18 H9           5.9850   -35.1090   -38.8910 hc         1 SKG       0.022700
     19 H10          7.0790   -35.2560   -41.1230 hc         1 SKG       0.022700
     20 H11          6.0610   -34.0460   -41.9160 hc         1 SKG       0.022700
     21 H12          7.8290   -33.8670   -41.8970 hc         1 SKG       0.022700
     22 H14          4.5280   -31.8600   -40.4810 hc         1 SKG       0.026367
     23 H15          5.3190   -30.3390   -40.8940 hc         1 SKG       0.026367
     24 H16          5.5130   -31.7490   -41.9490 hc         1 SKG       0.026367
@<TRIPOS>BOND
     1     1     2 1   
     2     1    11 1   
     3     1    12 1   
     4     2     3 1   
     5     2     5 1   
     6     2    13 1   
     7     3     4 1   
     8     3     9 1   
     9     5     6 1   
    10     5    10 1   
    11     5    14 1   
    12     6     7 1   
    13     6     8 1   
    14     6    15 1   
    15     7    16 1   
    16     7    17 1   
    17     7    18 1   
    18     8    19 1   
    19     8    20 1   
    20     8    21 1   
    21    10    22 1   
    22    10    23 1   
    23    10    24 1   
@<TRIPOS>SUBSTRUCTURE
     1 SKG         1 TEMP              0 ****  ****    0 ROOT
