@<TRIPOS>MOLECULE
SKG
   24    23     1     0     0
SMALL
bcc


@<TRIPOS>ATOM
      1 N            7.7370   -29.6930   -40.0390 n8         1 SKG      -0.869800
      2 CA           8.0010   -31.0900   -40.3710 c3         1 SKG       0.028500
      3 C            8.5670   -31.2230   -41.8050 c          1 SKG       0.926600
      4 O            8.2880   -30.3260   -42.6240 o          1 SKG      -0.834800
      5 CB           6.6980   -31.8910   -40.1390 c3         1 SKG      -0.019700
      6 CG           6.8950   -33.4200   -40.0050 c3         1 SKG      -0.048700
      7 CD1          5.9260   -33.9880   -38.9680 c3         1 SKG      -0.083100
      8 CD2          6.7570   -34.2050   -41.3070 c3         1 SKG      -0.083100
      9 OXT          9.2690   -32.2340   -42.0240 o          1 SKG      -0.834800
     10 CAE          5.5930   -31.5170   -41.1220 c3         1 SKG      -0.066100
     11 H1           7.6330   -29.6110   -39.0340 hn         1 SKG       0.311300
     12 H2           8.5380   -29.1250   -40.2830 hn         1 SKG       0.311300
     13 H4           8.7530   -31.5290   -39.6960 h1         1 SKG      -0.002300
     14 H5           6.3570   -31.5560   -39.1500 hc         1 SKG      -0.000300
     15 H6           7.9100   -33.5860   -39.6270 hc         1 SKG       0.050700
     16 H7           6.0740   -33.5300   -37.9880 hc         1 SKG       0.022700
     17 H8           4.8880   -33.8150   -39.2610 hc         1 SKG       0.022700
     18 H9           6.0550   -35.0660   -38.8530 hc         1 SKG       0.022700
     19 H10          7.0230   -35.2520   -41.1450 hc         1 SKG       0.022700
     20 H11          5.7300   -34.1890   -41.6770 hc         1 SKG       0.022700
     21 H12          7.4070   -33.8140   -42.0860 hc         1 SKG       0.022700
     22 H14          4.6540   -32.0090   -40.8620 hc         1 SKG       0.026367
     23 H15          5.4190   -30.4430   -41.1080 hc         1 SKG       0.026367
     24 H16          5.8380   -31.7980   -42.1470 hc         1 SKG       0.026367
@<TRIPOS>BOND
     1     1     2 1   
     2     1    11 1   
     3     1    12 1   
     4     2     3 1   
     5     2     5 1   
     6     2    13 1   
     7     3     4 1   
     8     3     9 1   
     9     5     6 1   
    10     5    10 1   
    11     5    14 1   
    12     6     7 1   
    13     6     8 1   
    14     6    15 1   
    15     7    16 1   
    16     7    17 1   
    17     7    18 1   
    18     8    19 1   
    19     8    20 1   
    20     8    21 1   
    21    10    22 1   
    22    10    23 1   
    23    10    24 1   
@<TRIPOS>SUBSTRUCTURE
     1 SKG         1 TEMP              0 ****  ****    0 ROOT
