@<TRIPOS>MOLECULE
SKI
   47    50     1     0     0
SMALL
No Charge or Current Charge


@<TRIPOS>ATOM
      1 C01         -1.3580     6.1480    -2.8430 c3         1 SKI       0.143900
      2 C03          0.1470     7.4790    -1.3900 ca         1 SKI       0.117100
      3 C04          1.4380     8.0160    -1.1800 ca         1 SKI       0.157100
      4 C05          1.6980     8.7820    -0.0230 ca         1 SKI      -0.186000
      5 C06          0.6910     9.0180     0.9270 ca         1 SKI       0.064000
      6 C07         -0.6020     8.4780     0.7230 ca         1 SKI      -0.166000
      7 C08         -0.8710     7.7120    -0.4370 ca         1 SKI      -0.160000
      8 C09         -1.5830     8.7480     1.7120 ca         1 SKI       0.402900
      9 C11         -0.0400     9.9460     2.9050 ca         1 SKI       0.161900
     10 C14         -4.0800     8.4840     2.2950 ca         1 SKI       0.292000
     11 C15         -4.3710     9.7440     2.8560 ca         1 SKI      -0.121000
     12 C16         -5.6010     9.9720     3.5010 ca         1 SKI      -0.107500
     13 C17         -6.5500     8.9420     3.5920 ca         1 SKI       0.088100
     14 C18         -6.2790     7.6890     3.0090 ca         1 SKI      -0.107500
     15 C19         -5.0490     7.4660     2.3640 ca         1 SKI      -0.121000
     16 C21         -8.4030     8.2600     4.9900 ca         1 SKI       0.127100
     17 C22         -9.8060     8.1960     4.9410 ca         1 SKI      -0.152000
     18 C23        -10.4980     7.2610     5.7310 ca         1 SKI      -0.083500
     19 C24         -9.7850     6.3940     6.5770 ca         1 SKI      -0.137000
     20 C25         -8.3820     6.4640     6.6380 ca         1 SKI      -0.083500
     21 C26         -7.6900     7.3990     5.8480 ca         1 SKI      -0.152000
     22 C28          3.7610     8.2760    -2.0050 c3         1 SKI       0.141900
     23 N10         -1.2950     9.4740     2.8050 nb         1 SKI      -0.271000
     24 N12          0.9620     9.7540     2.0250 nb         1 SKI      -0.202000
     25 N13         -2.8760     8.2230     1.6300 nu         1 SKI      -0.936900
     26 O02         -0.0810     6.7340    -2.5370 os         1 SKI      -0.316100
     27 O20         -7.7510     9.1940     4.2160 os         1 SKI      -0.253200
     28 O27          2.4190     7.7720    -2.1290 os         1 SKI      -0.316100
     29 H012        -1.3090     5.6060    -3.7950 h1         1 SKI       0.042033
     30 H011        -1.6580     5.4370    -2.0620 h1         1 SKI       0.042033
     31 H013        -2.1310     6.9220    -2.9330 h1         1 SKI       0.042033
     32 H051         2.6820     9.2060     0.1560 ha         1 SKI       0.143000
     33 H081        -1.8650     7.3100    -0.6000 ha         1 SKI       0.113000
     34 H111         0.1920    10.5380     3.7880 h5         1 SKI       0.046100
     35 H151        -3.6580    10.5590     2.7790 ha         1 SKI       0.128000
     36 H161        -5.8190    10.9470     3.9300 ha         1 SKI       0.130000
     37 H181        -7.0180     6.8920     3.0500 ha         1 SKI       0.130000
     38 H191        -4.8480     6.4940     1.9210 ha         1 SKI       0.128000
     39 H221       -10.3550     8.8690     4.2870 ha         1 SKI       0.127500
     40 H231       -11.5840     7.2090     5.6880 ha         1 SKI       0.113500
     41 H241       -10.3200     5.6700     7.1890 ha         1 SKI       0.115000
     42 H251        -7.8320     5.7970     7.2990 ha         1 SKI       0.113500
     43 H261        -6.6060     7.4570     5.9080 ha         1 SKI       0.127500
     44 H281         4.3650     7.9630    -2.8650 h1         1 SKI       0.046367
     45 H282         3.7640     9.3730    -1.9690 h1         1 SKI       0.046367
     46 H283         4.2400     7.8910    -1.0960 h1         1 SKI       0.046367
     47 H131        -2.9280     7.4280     0.9980 hn         1 SKI       0.497000
@<TRIPOS>BOND
     1     1    26 1   
     2     1    29 1   
     3     1    30 1   
     4     1    31 1   
     5     2     3 ar  
     6     2     7 ar  
     7     2    26 1   
     8     3     4 ar  
     9     3    28 1   
    10     4     5 ar  
    11     4    32 1   
    12     5     6 ar  
    13     5    24 ar  
    14     6     7 ar  
    15     6     8 ar  
    16     7    33 1   
    17     8    23 ar  
    18     8    25 1   
    19     9    23 ar  
    20     9    24 ar  
    21     9    34 1   
    22    10    11 ar  
    23    10    15 ar  
    24    10    25 1   
    25    11    12 ar  
    26    11    35 1   
    27    12    13 ar  
    28    12    36 1   
    29    13    14 ar  
    30    13    27 1   
    31    14    15 ar  
    32    14    37 1   
    33    15    38 1   
    34    16    17 ar  
    35    16    21 ar  
    36    16    27 1   
    37    17    18 ar  
    38    17    39 1   
    39    18    19 ar  
    40    18    40 1   
    41    19    20 ar  
    42    19    41 1   
    43    20    21 ar  
    44    20    42 1   
    45    21    43 1   
    46    22    28 1   
    47    22    44 1   
    48    22    45 1   
    49    22    46 1   
    50    25    47 1   
@<TRIPOS>SUBSTRUCTURE
     1 SKI         1 TEMP              0 ****  ****    0 ROOT
