@<TRIPOS>MOLECULE
SKI
   47    50     1     0     0
SMALL
abcg2


@<TRIPOS>ATOM
      1 C01         -1.1210     6.3260    -3.0000 c3         1 SKI       0.143900
      2 C03          0.1530     7.4950    -1.3890 ca         1 SKI       0.117100
      3 C04          1.4490     7.9670    -1.0070 ca         1 SKI       0.157100
      4 C05          1.6030     8.6740     0.1560 ca         1 SKI      -0.186000
      5 C06          0.4960     8.9370     0.9920 ca         1 SKI       0.064000
      6 C07         -0.7740     8.4600     0.6260 ca         1 SKI      -0.166000
      7 C08         -0.9270     7.7450    -0.5840 ca         1 SKI      -0.160000
      8 C09         -1.8330     8.7620     1.5410 ca         1 SKI       0.402900
      9 C11         -0.3530     9.8770     2.8570 ca         1 SKI       0.161900
     10 C14         -4.2550     8.5390     2.0370 ca         1 SKI       0.292000
     11 C15         -4.5130     9.7180     2.7350 ca         1 SKI      -0.121000
     12 C16         -5.7050     9.8730     3.4250 ca         1 SKI      -0.107500
     13 C17         -6.6650     8.8740     3.4030 ca         1 SKI       0.088100
     14 C18         -6.4330     7.7080     2.6870 ca         1 SKI      -0.107500
     15 C19         -5.2340     7.5430     2.0190 ca         1 SKI      -0.121000
     16 C21         -8.3060     8.2080     4.9710 ca         1 SKI       0.127100
     17 C22         -9.6820     8.1670     5.1730 ca         1 SKI      -0.152000
     18 C23        -10.2080     7.3170     6.1350 ca         1 SKI      -0.083500
     19 C24         -9.3740     6.5030     6.8910 ca         1 SKI      -0.137000
     20 C25         -8.0040     6.5520     6.6800 ca         1 SKI      -0.083500
     21 C26         -7.4600     7.4020     5.7250 ca         1 SKI      -0.152000
     22 C28          3.7410     8.0980    -1.5580 c3         1 SKI       0.141900
     23 N10         -1.6050     9.4670     2.6300 nb         1 SKI      -0.271000
     24 N12          0.7020     9.6550     2.1270 nb         1 SKI      -0.202000
     25 N13         -3.0900     8.3140     1.2950 nu         1 SKI      -0.936900
     26 O02          0.1200     6.8320    -2.5520 os         1 SKI      -0.316100
     27 O20         -7.8540     9.1000     4.0440 os         1 SKI      -0.253200
     28 O27          2.4280     7.6650    -1.8620 os         1 SKI      -0.316100
     29 H012        -0.9240     5.8160    -3.9390 h1         1 SKI       0.042033
     30 H011        -1.5470     5.6100    -2.2920 h1         1 SKI       0.042033
     31 H013        -1.8460     7.1240    -3.1760 h1         1 SKI       0.042033
     32 H051         2.5660     9.0520     0.4700 ha         1 SKI       0.143000
     33 H081        -1.9030     7.4000    -0.8970 ha         1 SKI       0.113000
     34 H111        -0.2110    10.4560     3.7640 h5         1 SKI       0.046100
     35 H151        -3.7900    10.5170     2.7540 ha         1 SKI       0.128000
     36 H161        -5.8930    10.7890     3.9700 ha         1 SKI       0.130000
     37 H181        -7.1790     6.9230     2.6490 ha         1 SKI       0.130000
     38 H191        -5.0560     6.6250     1.4710 ha         1 SKI       0.128000
     39 H221       -10.3310     8.7990     4.5810 ha         1 SKI       0.127500
     40 H231       -11.2790     7.2900     6.2870 ha         1 SKI       0.113500
     41 H241        -9.7890     5.8380     7.6370 ha         1 SKI       0.115000
     42 H251        -7.3410     5.9280     7.2660 ha         1 SKI       0.113500
     43 H261        -6.3880     7.4330     5.5820 ha         1 SKI       0.127500
     44 H281         4.3730     7.7540    -2.3720 h1         1 SKI       0.046367
     45 H282         3.8040     9.1880    -1.4960 h1         1 SKI       0.046367
     46 H283         4.1020     7.6680    -0.6210 h1         1 SKI       0.046367
     47 H131        -3.1870     7.6090     0.5820 hn         1 SKI       0.497000
@<TRIPOS>BOND
     1     1    26 1   
     2     1    29 1   
     3     1    30 1   
     4     1    31 1   
     5     2     3 ar  
     6     2     7 ar  
     7     2    26 1   
     8     3     4 ar  
     9     3    28 1   
    10     4     5 ar  
    11     4    32 1   
    12     5     6 ar  
    13     5    24 ar  
    14     6     7 ar  
    15     6     8 ar  
    16     7    33 1   
    17     8    23 ar  
    18     8    25 1   
    19     9    23 ar  
    20     9    24 ar  
    21     9    34 1   
    22    10    11 ar  
    23    10    15 ar  
    24    10    25 1   
    25    11    12 ar  
    26    11    35 1   
    27    12    13 ar  
    28    12    36 1   
    29    13    14 ar  
    30    13    27 1   
    31    14    15 ar  
    32    14    37 1   
    33    15    38 1   
    34    16    17 ar  
    35    16    21 ar  
    36    16    27 1   
    37    17    18 ar  
    38    17    39 1   
    39    18    19 ar  
    40    18    40 1   
    41    19    20 ar  
    42    19    41 1   
    43    20    21 ar  
    44    20    42 1   
    45    21    43 1   
    46    22    28 1   
    47    22    44 1   
    48    22    45 1   
    49    22    46 1   
    50    25    47 1   
@<TRIPOS>SUBSTRUCTURE
     1 SKI         1 TEMP              0 ****  ****    0 ROOT
