@<TRIPOS>MOLECULE
SKJ
   24    23     1     0     0
SMALL
No Charge or Current Charge


@<TRIPOS>ATOM
      1 N            4.2290   -29.3640     8.2370 n8         1 SKJ      -0.883800
      2 CA           4.4300   -30.8620     8.3210 c3         1 SKJ       0.027500
      3 C            5.1260   -31.5870     7.0760 c          1 SKJ       0.927600
      4 O            4.7310   -31.3470     5.9380 o          1 SKJ      -0.836800
      5 CB           3.1150   -31.5800     8.7750 c3         1 SKJ      -0.018700
      6 CG1          3.3870   -33.0570     9.1600 c3         1 SKJ      -0.078100
      7 CG2          1.9490   -31.4440     7.7470 c3         1 SKJ      -0.071400
      8 OXT          6.1470   -32.2400     7.2790 o          1 SKJ      -0.836800
      9 CAA         -0.5650   -31.6950     7.2470 c3         1 SKJ      -0.084100
     10 CAB          0.5750   -31.9470     8.2520 c3         1 SKJ      -0.075400
     11 H1           3.8810   -29.0190     9.1370 hn         1 SKJ       0.318800
     12 H2           5.1380   -28.9060     8.1160 hn         1 SKJ       0.318800
     13 H4           5.1350   -30.9820     9.1550 h1         1 SKJ      -0.001300
     14 H5           2.7880   -31.0790     9.6950 hc         1 SKJ       0.001700
     15 H6           4.2500   -33.1290     9.8330 hc         1 SKJ       0.022700
     16 H7           2.5290   -33.4930     9.6840 hc         1 SKJ       0.022700
     17 H8           3.5920   -33.6670     8.2720 hc         1 SKJ       0.022700
     18 H9           2.2060   -31.9860     6.8290 hc         1 SKJ       0.061200
     19 H10          1.8410   -30.3900     7.4640 hc         1 SKJ       0.061200
     20 H12         -1.5150   -32.0700     7.6450 hc         1 SKJ       0.020367
     21 H13         -0.6760   -30.6220     7.0460 hc         1 SKJ       0.020367
     22 H14         -0.3650   -32.2070     6.2980 hc         1 SKJ       0.020367
     23 H15          0.3300   -31.4490     9.1990 hc         1 SKJ       0.020700
     24 H16          0.6220   -33.0230     8.4560 hc         1 SKJ       0.020700
@<TRIPOS>BOND
     1     1     2 1   
     2     1    11 1   
     3     1    12 1   
     4     2     3 1   
     5     2     5 1   
     6     2    13 1   
     7     3     4 1   
     8     3     8 1   
     9     5     6 1   
    10     5     7 1   
    11     5    14 1   
    12     6    15 1   
    13     6    16 1   
    14     6    17 1   
    15     7    10 1   
    16     7    18 1   
    17     7    19 1   
    18     9    10 1   
    19     9    20 1   
    20     9    21 1   
    21     9    22 1   
    22    10    23 1   
    23    10    24 1   
@<TRIPOS>SUBSTRUCTURE
     1 SKJ         1 TEMP              0 ****  ****    0 ROOT
