@<TRIPOS>MOLECULE
SKJ
   24    23     1     0     0
SMALL
bcc


@<TRIPOS>ATOM
      1 N            4.1490   -29.4380     8.3900 n8         1 SKJ      -0.883800
      2 CA           4.4060   -30.8730     8.3570 c3         1 SKJ       0.027500
      3 C            4.8900   -31.3270     6.9590 c          1 SKJ       0.927600
      4 O            4.8610   -30.4880     6.0380 o          1 SKJ      -0.836800
      5 CB           3.1240   -31.6070     8.8110 c3         1 SKJ      -0.018700
      6 CG1          3.3860   -33.0300     9.2910 c3         1 SKJ      -0.078100
      7 CG2          2.0260   -31.5550     7.7470 c3         1 SKJ      -0.071400
      8 OXT          5.2890   -32.5070     6.8740 o          1 SKJ      -0.836800
      9 CAA         -0.4310   -31.7990     7.1760 c3         1 SKJ      -0.084100
     10 CAB          0.6280   -31.8730     8.2680 c3         1 SKJ      -0.075400
     11 H1           4.1810   -29.1150     9.3490 hn         1 SKJ       0.318800
     12 H2           4.8800   -28.9500     7.8920 hn         1 SKJ       0.318800
     13 H4           5.2000   -31.1580     9.0670 h1         1 SKJ      -0.001300
     14 H5           2.7630   -31.0390     9.6800 hc         1 SKJ       0.001700
     15 H6           4.1920   -33.0530    10.0270 hc         1 SKJ       0.022700
     16 H7           2.5030   -33.4580     9.7680 hc         1 SKJ       0.022700
     17 H8           3.6740   -33.6820     8.4680 hc         1 SKJ       0.022700
     18 H9           2.2730   -32.2550     6.9400 hc         1 SKJ       0.061200
     19 H10          2.0130   -30.5560     7.2980 hc         1 SKJ       0.061200
     20 H12         -1.4260   -32.0210     7.5650 hc         1 SKJ       0.020367
     21 H13         -0.4650   -30.8060     6.7260 hc         1 SKJ       0.020367
     22 H14         -0.2220   -32.5140     6.3780 hc         1 SKJ       0.020367
     23 H15          0.3760   -31.1720     9.0700 hc         1 SKJ       0.020700
     24 H16          0.6100   -32.8680     8.7200 hc         1 SKJ       0.020700
@<TRIPOS>BOND
     1     1     2 1   
     2     1    11 1   
     3     1    12 1   
     4     2     3 1   
     5     2     5 1   
     6     2    13 1   
     7     3     4 1   
     8     3     8 1   
     9     5     6 1   
    10     5     7 1   
    11     5    14 1   
    12     6    15 1   
    13     6    16 1   
    14     6    17 1   
    15     7    10 1   
    16     7    18 1   
    17     7    19 1   
    18     9    10 1   
    19     9    20 1   
    20     9    21 1   
    21     9    22 1   
    22    10    23 1   
    23    10    24 1   
@<TRIPOS>SUBSTRUCTURE
     1 SKJ         1 TEMP              0 ****  ****    0 ROOT
