@<TRIPOS>MOLECULE
SKK
   53    55     1     0     0
SMALL
No Charge or Current Charge


@<TRIPOS>ATOM
      1 N1           2.9600     4.1580     0.4220 n1         1 SKK      -0.444000
      2 N2           4.4370     0.8990     0.3310 n          1 SKK      -0.428800
      3 N3           1.6860    -1.8310     0.0730 n7         1 SKK      -0.854400
      4 N4          -1.1450    -2.5350    -0.4640 ns         1 SKK      -0.507900
      5 N5          -3.9470     0.1920    -1.9170 nc         1 SKK      -0.645000
      6 N6          -4.4200     0.7880     0.4380 na         1 SKK       0.108900
      7 N7          -5.2080     1.6160     1.2010 nc         1 SKK      -0.565100
      8 O8           2.3740     0.6760     1.3120 o          1 SKK      -0.572100
      9 O9          -1.5790    -1.9820     1.7010 o          1 SKK      -0.583100
     10 C10          3.7230     3.3030     0.6440 c1         1 SKK       0.296900
     11 C11          4.7350     2.2440     0.9020 c5         1 SKK       0.179800
     12 C12          6.0930     2.5710     0.2130 c5         1 SKK      -0.086400
     13 C13          6.7640     1.1780     0.1470 c5         1 SKK      -0.095400
     14 C14          5.5990     0.2920    -0.3580 c5         1 SKK       0.107000
     15 C15          3.2280     0.2040     0.5660 c          1 SKK       0.600100
     16 C16          3.0060    -1.1520    -0.1910 c3         1 SKK       0.098800
     17 C17          1.3390    -3.0670    -0.6740 c3         1 SKK       0.176200
     18 C18          1.3350    -2.7760    -2.1990 c3         1 SKK      -0.107100
     19 C19          2.3680    -4.1760    -0.3380 c3         1 SKK      -0.107100
     20 C20         -0.0810    -3.5280    -0.2120 c3         1 SKK       0.107000
     21 C21         -1.8050    -1.8200     0.5120 c          1 SKK       0.634700
     22 C22         -2.8030    -0.8500     0.0030 cd         1 SKK      -0.289600
     23 C23         -3.4970    -0.1060     0.9690 cc         1 SKK       0.040000
     24 C24         -3.0610    -0.6670    -1.4180 cd         1 SKK       0.388900
     25 C25         -4.5750     0.8710    -0.9230 cc         1 SKK       0.372500
     26 C26         -5.5310     1.8190    -1.0690 cd         1 SKK      -0.369600
     27 C27         -5.8840     2.2410     0.2410 cd         1 SKK       0.397600
     28 C28         -6.9070     3.2810     0.5890 c3         1 SKK      -0.110400
     29 H1           0.9320    -1.1490    -0.0710 hn         1 SKK       0.441000
     30 H3          -1.4030    -2.3560    -1.4240 hn         1 SKK       0.309500
     31 H4           4.8530     2.1750     1.9920 h1         1 SKK       0.089700
     32 H5           5.9500     2.9780    -0.7960 hc         1 SKK       0.065200
     33 H6           6.6850     3.3000     0.7780 hc         1 SKK       0.065200
     34 H7           7.6310     1.1530    -0.5220 hc         1 SKK       0.060200
     35 H8           7.1040     0.8550     1.1390 hc         1 SKK       0.060200
     36 H9           5.7560    -0.7610    -0.0880 h1         1 SKK       0.050200
     37 H10          5.4810     0.3620    -1.4480 h1         1 SKK       0.050200
     38 H11          3.8320    -1.8170     0.0900 h1         1 SKK       0.045700
     39 H12          3.1190    -0.9220    -1.2580 h1         1 SKK       0.045700
     40 H13          0.9340    -3.6340    -2.7520 hc         1 SKK       0.039700
     41 H14          0.7200    -1.9010    -2.4390 hc         1 SKK       0.039700
     42 H15          2.3490    -2.5920    -2.5760 hc         1 SKK       0.039700
     43 H16          2.4330    -4.3350     0.7450 hc         1 SKK       0.039700
     44 H17          2.0740    -5.1260    -0.8010 hc         1 SKK       0.039700
     45 H18          3.3680    -3.9250    -0.7090 hc         1 SKK       0.039700
     46 H19         -0.0480    -3.7700     0.8590 h1         1 SKK       0.067700
     47 H20         -0.3470    -4.4530    -0.7410 h1         1 SKK       0.067700
     48 H21         -3.3910    -0.1550     2.0460 h4         1 SKK       0.188000
     49 H22         -2.5410    -1.2260    -2.1840 h4         1 SKK       0.022100
     50 H23         -5.9410     2.1800    -2.0030 ha         1 SKK       0.229000
     51 H24         -7.7040     2.8540     1.2080 hc         1 SKK       0.054033
     52 H25         -6.4510     4.1080     1.1440 hc         1 SKK       0.054033
     53 H26         -7.3690     3.6970    -0.3140 hc         1 SKK       0.054033
@<TRIPOS>BOND
     1     1    10 3   
     2     2    11 1   
     3     2    14 1   
     4     2    15 1   
     5     3    16 1   
     6     3    17 1   
     7     3    29 1   
     8     4    20 1   
     9     4    21 1   
    10     4    30 1   
    11     5    24 2   
    12     5    25 1   
    13     6     7 1   
    14     6    23 1   
    15     6    25 1   
    16     7    27 2   
    17     8    15 2   
    18     9    21 2   
    19    10    11 1   
    20    11    12 1   
    21    11    31 1   
    22    12    13 1   
    23    12    32 1   
    24    12    33 1   
    25    13    14 1   
    26    13    34 1   
    27    13    35 1   
    28    14    36 1   
    29    14    37 1   
    30    15    16 1   
    31    16    38 1   
    32    16    39 1   
    33    17    18 1   
    34    17    19 1   
    35    17    20 1   
    36    18    40 1   
    37    18    41 1   
    38    18    42 1   
    39    19    43 1   
    40    19    44 1   
    41    19    45 1   
    42    20    46 1   
    43    20    47 1   
    44    21    22 1   
    45    22    23 2   
    46    22    24 1   
    47    23    48 1   
    48    24    49 1   
    49    25    26 2   
    50    26    27 1   
    51    26    50 1   
    52    27    28 1   
    53    28    51 1   
    54    28    52 1   
    55    28    53 1   
@<TRIPOS>SUBSTRUCTURE
     1 SKK         1 TEMP              0 ****  ****    0 ROOT
