@<TRIPOS>MOLECULE
SKK
   53    55     1     0     0
SMALL
abcg2


@<TRIPOS>ATOM
      1 N1           2.7500     3.9650    -0.0300 n1         1 SKK      -0.444000
      2 N2           4.2360     0.8650     0.2590 n          1 SKK      -0.428800
      3 N3           1.7110    -1.7660    -0.0120 n7         1 SKK      -0.854400
      4 N4          -1.0310    -2.5730    -0.4970 ns         1 SKK      -0.507900
      5 N5          -4.4270    -0.3630    -1.6650 nc         1 SKK      -0.645000
      6 N6          -4.1550     0.8430     0.3660 na         1 SKK       0.108900
      7 N7          -4.6440     1.8900     1.0320 nc         1 SKK      -0.565100
      8 O8           2.1120     0.7280     0.9500 o          1 SKK      -0.572100
      9 O9          -1.3870    -1.9020     1.6380 o          1 SKK      -0.583100
     10 C10          3.4580     3.1540     0.3720 c1         1 SKK       0.296900
     11 C11          4.4140     2.1660     0.8810 c5         1 SKK       0.179800
     12 C12          5.8630     2.5510     0.5370 c5         1 SKK      -0.086400
     13 C13          6.5400     1.2010     0.3310 c5         1 SKK      -0.095400
     14 C14          5.4640     0.3770    -0.3610 c5         1 SKK       0.107000
     15 C15          3.0600     0.2150     0.3760 c          1 SKK       0.600100
     16 C16          2.9880    -1.1530    -0.2730 c3         1 SKK       0.098800
     17 C17          1.4190    -2.9990    -0.7370 c3         1 SKK       0.176200
     18 C18          1.3820    -2.8170    -2.2600 c3         1 SKK      -0.107100
     19 C19          2.4440    -4.0720    -0.3760 c3         1 SKK      -0.107100
     20 C20          0.0520    -3.4960    -0.2370 c3         1 SKK       0.107000
     21 C21         -1.6690    -1.8630     0.4490 c          1 SKK       0.634700
     22 C22         -2.7700    -0.9810    -0.0330 cd         1 SKK      -0.289600
     23 C23         -3.1680     0.0390     0.7850 cc         1 SKK       0.040000
     24 C24         -3.4590    -1.1380    -1.2670 cd         1 SKK       0.388900
     25 C25         -4.7850     0.6490    -0.8580 cc         1 SKK       0.372500
     26 C26         -5.7270     1.6500    -0.9490 cd         1 SKK      -0.369600
     27 C27         -5.5920     2.3810     0.2420 cd         1 SKK       0.397600
     28 C28         -6.3740     3.5780     0.6510 c3         1 SKK      -0.110400
     29 H1           0.9780    -1.0890    -0.1810 hn         1 SKK       0.441000
     30 H3          -1.2890    -2.4420    -1.4610 hn         1 SKK       0.309500
     31 H4           4.2710     2.1030     1.9640 h1         1 SKK       0.089700
     32 H5           5.8930     3.1340    -0.3840 hc         1 SKK       0.065200
     33 H6           6.3090     3.1490     1.3290 hc         1 SKK       0.065200
     34 H7           7.4490     1.2770    -0.2620 hc         1 SKK       0.060200
     35 H8           6.7960     0.7490     1.2910 hc         1 SKK       0.060200
     36 H9           5.5910    -0.6920    -0.1960 h1         1 SKK       0.050200
     37 H10          5.4520     0.5570    -1.4390 h1         1 SKK       0.050200
     38 H11          3.7870    -1.7730     0.1430 h1         1 SKK       0.045700
     39 H12          3.2330    -1.0240    -1.3390 h1         1 SKK       0.045700
     40 H13          1.0750    -3.7370    -2.7600 hc         1 SKK       0.039700
     41 H14          0.6880    -2.0270    -2.5550 hc         1 SKK       0.039700
     42 H15          2.3630    -2.5500    -2.6560 hc         1 SKK       0.039700
     43 H16          2.5270    -4.1880     0.7060 hc         1 SKK       0.039700
     44 H17          2.1540    -5.0340    -0.8000 hc         1 SKK       0.039700
     45 H18          3.4340    -3.8350    -0.7690 hc         1 SKK       0.039700
     46 H19          0.1010    -3.6720     0.8360 h1         1 SKK       0.067700
     47 H20         -0.1810    -4.4470    -0.7200 h1         1 SKK       0.067700
     48 H21         -2.7350     0.2520     1.7520 h4         1 SKK       0.188000
     49 H22         -3.2090    -1.9550    -1.9350 h4         1 SKK       0.022100
     50 H23         -6.4140     1.8270    -1.7600 ha         1 SKK       0.229000
     51 H24         -7.4370     3.3430     0.7120 hc         1 SKK       0.054033
     52 H25         -6.0490     3.9490     1.6210 hc         1 SKK       0.054033
     53 H26         -6.2630     4.3790    -0.0800 hc         1 SKK       0.054033
@<TRIPOS>BOND
     1     1    10 3   
     2     2    11 1   
     3     2    14 1   
     4     2    15 1   
     5     3    16 1   
     6     3    17 1   
     7     3    29 1   
     8     4    20 1   
     9     4    21 1   
    10     4    30 1   
    11     5    24 2   
    12     5    25 1   
    13     6     7 1   
    14     6    23 1   
    15     6    25 1   
    16     7    27 2   
    17     8    15 2   
    18     9    21 2   
    19    10    11 1   
    20    11    12 1   
    21    11    31 1   
    22    12    13 1   
    23    12    32 1   
    24    12    33 1   
    25    13    14 1   
    26    13    34 1   
    27    13    35 1   
    28    14    36 1   
    29    14    37 1   
    30    15    16 1   
    31    16    38 1   
    32    16    39 1   
    33    17    18 1   
    34    17    19 1   
    35    17    20 1   
    36    18    40 1   
    37    18    41 1   
    38    18    42 1   
    39    19    43 1   
    40    19    44 1   
    41    19    45 1   
    42    20    46 1   
    43    20    47 1   
    44    21    22 1   
    45    22    23 2   
    46    22    24 1   
    47    23    48 1   
    48    24    49 1   
    49    25    26 2   
    50    26    27 1   
    51    26    50 1   
    52    27    28 1   
    53    28    51 1   
    54    28    52 1   
    55    28    53 1   
@<TRIPOS>SUBSTRUCTURE
     1 SKK         1 TEMP              0 ****  ****    0 ROOT
