@<TRIPOS>MOLECULE
SKL
   43    46     1     0     0
SMALL
No Charge or Current Charge


@<TRIPOS>ATOM
      1 C10         12.5950    10.7400     2.6990 ca         1 SKL      -0.037000
      2 C11         12.9110    11.0450     4.0350 ca         1 SKL      -0.158000
      3 O1          10.2410     8.6040     0.7270 os         1 SKL      -0.294700
      4 C5          10.1740     8.5210    -0.6090 ca         1 SKL       0.028100
      5 C4           9.3190     7.7470    -1.3970 ca         1 SKL      -0.089000
      6 C3           9.4650     7.8540    -2.7970 ca         1 SKL      -0.094000
      7 C2          10.4450     8.7160    -3.3550 ca         1 SKL      -0.090300
      8 C1          10.5880     8.8240    -4.8660 c3         1 SKL      -0.044800
      9 C8          11.2840     9.4810    -2.5080 ca         1 SKL      -0.050000
     10 C7          11.1280     9.3650    -1.1190 ca         1 SKL       0.065400
     11 N1          11.8400    10.0170    -0.1080 nc         1 SKL      -0.571100
     12 C6          11.2430     9.5030     0.9880 cd         1 SKL       0.600200
     13 C9          11.5700     9.8190     2.3930 ca         1 SKL      -0.148900
     14 C21         10.8720     9.2070     3.4550 ca         1 SKL      -0.037000
     15 C20         11.1920     9.5140     4.7890 ca         1 SKL      -0.158000
     16 C12         12.2070    10.4370     5.0950 ca         1 SKL      -0.004000
     17 N2          12.4740    10.6900     6.4700 ns         1 SKL      -0.139000
     18 C13         13.2860    11.6190     7.1140 c          1 SKL       0.623700
     19 O2          13.9210    12.4760     6.5120 o          1 SKL      -0.543100
     20 C14         13.2600    11.5450     8.6280 ca         1 SKL      -0.158600
     21 C15         12.0960    11.0760     9.2930 ca         1 SKL      -0.022000
     22 C16         12.0360    11.0070    10.7050 ca         1 SKL      -0.177200
     23 N3          10.7970    10.5160    11.3920 no         1 SKL       0.676200
     24 O4           9.8430    10.1540    10.6920 o          1 SKL      -0.387000
     25 O3          10.7860    10.4900    12.6300 o          1 SKL      -0.387000
     26 C17         13.1550    11.4120    11.4620 ca         1 SKL      -0.020000
     27 C18         14.3090    11.8750    10.8140 ca         1 SKL      -0.119000
     28 C19         14.3710    11.9460     9.4130 ca         1 SKL       0.192000
     29 H1          13.1540    11.2240     1.9000 ha         1 SKL       0.137000
     30 H2          13.7150    11.7510     4.2190 ha         1 SKL       0.135500
     31 H3           8.5750     7.0930    -0.9500 ha         1 SKL       0.133000
     32 H4           8.8180     7.2700    -3.4480 ha         1 SKL       0.117000
     33 H5           9.9180     9.5930    -5.2670 hc         1 SKL       0.044367
     34 H6          11.6130     9.0880    -5.1540 hc         1 SKL       0.044367
     35 H7          10.3430     7.8750    -5.3590 hc         1 SKL       0.044367
     36 H8          12.0370    10.1480    -2.9200 ha         1 SKL       0.133000
     37 H9          10.0780     8.4890     3.2550 ha         1 SKL       0.137000
     38 H10         10.6390     9.0280     5.5910 ha         1 SKL       0.135500
     39 H11         11.9960    10.0570     7.0960 hn         1 SKL       0.157000
     40 H12         11.2200    10.7870     8.7140 ha         1 SKL       0.161000
     41 H13         13.1430    11.3710    12.5510 ha         1 SKL       0.161000
     42 H14         15.1710    12.1760    11.4040 ha         1 SKL       0.150000
     43 Cl1         15.9010    12.4830     8.7140 cl         1 SKL      -0.146000
@<TRIPOS>BOND
     1     1     2 ar  
     2     1    13 ar  
     3     1    29 1   
     4     2    16 ar  
     5     2    30 1   
     6     3     4 1   
     7     3    12 1   
     8     4     5 ar  
     9     4    10 ar  
    10     5     6 ar  
    11     5    31 1   
    12     6     7 ar  
    13     6    32 1   
    14     7     8 1   
    15     7     9 ar  
    16     8    33 1   
    17     8    34 1   
    18     8    35 1   
    19     9    10 ar  
    20     9    36 1   
    21    10    11 1   
    22    11    12 2   
    23    12    13 1   
    24    13    14 ar  
    25    14    15 ar  
    26    14    37 1   
    27    15    16 ar  
    28    15    38 1   
    29    16    17 1   
    30    17    18 1   
    31    17    39 1   
    32    18    19 2   
    33    18    20 1   
    34    20    21 ar  
    35    20    28 ar  
    36    21    22 ar  
    37    21    40 1   
    38    22    23 1   
    39    22    26 ar  
    40    23    24 1   
    41    23    25 1   
    42    26    27 ar  
    43    26    41 1   
    44    27    28 ar  
    45    27    42 1   
    46    28    43 1   
@<TRIPOS>SUBSTRUCTURE
     1 SKL         1 TEMP              0 ****  ****    0 ROOT
