@<TRIPOS>MOLECULE
SKL
   43    46     1     0     0
SMALL
abcg2


@<TRIPOS>ATOM
      1 C10         12.3620    10.8450     2.7800 ca         1 SKL      -0.037000
      2 C11         12.6800    11.1230     4.0990 ca         1 SKL      -0.158000
      3 O1          10.5590     8.3240     0.7650 os         1 SKL      -0.294700
      4 C5          10.4070     8.3380    -0.5990 ca         1 SKL       0.028100
      5 C4           9.7480     7.4370    -1.4110 ca         1 SKL      -0.089000
      6 C3           9.7690     7.7240    -2.7740 ca         1 SKL      -0.094000
      7 C2          10.4160     8.8580    -3.3010 ca         1 SKL      -0.090300
      8 C1          10.3780     9.1140    -4.7860 c3         1 SKL      -0.044800
      9 C8          11.0730     9.7430    -2.4480 ca         1 SKL      -0.050000
     10 C7          11.0630     9.4710    -1.0810 ca         1 SKL       0.065400
     11 N1          11.6180    10.1510    -0.0000 nc         1 SKL      -0.571100
     12 C6          11.2990     9.4490     1.0460 cd         1 SKL       0.600200
     13 C9          11.6210     9.7110     2.4360 ca         1 SKL      -0.148900
     14 C21         11.2010     8.8460     3.4540 ca         1 SKL      -0.037000
     15 C20         11.5140     9.1150     4.7720 ca         1 SKL      -0.158000
     16 C12         12.2540    10.2550     5.1110 ca         1 SKL      -0.004000
     17 N2          12.5190    10.4570     6.4720 ns         1 SKL      -0.139000
     18 C13         13.1900    11.4760     7.0740 c          1 SKL       0.623700
     19 O2          13.7360    12.4010     6.4920 o          1 SKL      -0.543100
     20 C14         13.1830    11.3990     8.5780 ca         1 SKL      -0.158600
     21 C15         11.9690    11.4220     9.2520 ca         1 SKL      -0.022000
     22 C16         11.9560    11.4370    10.6390 ca         1 SKL      -0.177200
     23 N3          10.6670    11.4710    11.3320 no         1 SKL       0.676200
     24 O4           9.6470    11.4780    10.6560 o          1 SKL      -0.387000
     25 O3          10.6720    11.4910    12.5560 o          1 SKL      -0.387000
     26 C17         13.1270    11.4160    11.3840 ca         1 SKL      -0.020000
     27 C18         14.3390    11.3770    10.7170 ca         1 SKL      -0.119000
     28 C19         14.3650    11.3700     9.3260 ca         1 SKL       0.192000
     29 H1          12.6920    11.5190     2.0020 ha         1 SKL       0.137000
     30 H2          13.2520    12.0010     4.3460 ha         1 SKL       0.135500
     31 H3           9.2490     6.5620    -1.0190 ha         1 SKL       0.133000
     32 H4           9.2680     7.0480    -3.4560 ha         1 SKL       0.117000
     33 H5           9.3770     9.4220    -5.1020 hc         1 SKL       0.044367
     34 H6          11.0750     9.9020    -5.0680 hc         1 SKL       0.044367
     35 H7          10.6310     8.2130    -5.3480 hc         1 SKL       0.044367
     36 H8          11.5790    10.6180    -2.8350 ha         1 SKL       0.133000
     37 H9          10.6280     7.9620     3.2130 ha         1 SKL       0.137000
     38 H10         11.1830     8.4410     5.5530 ha         1 SKL       0.135500
     39 H11         12.1590     9.7400     7.0870 hn         1 SKL       0.157000
     40 H12         11.0390    11.4410     8.7040 ha         1 SKL       0.161000
     41 H13         13.0900    11.4250    12.4630 ha         1 SKL       0.161000
     42 H14         15.2660    11.3470    11.2710 ha         1 SKL       0.150000
     43 CL1         15.9090    11.2940     8.5400 cl         1 SKL      -0.146000
@<TRIPOS>BOND
     1     1     2 ar  
     2     1    13 ar  
     3     1    29 1   
     4     2    16 ar  
     5     2    30 1   
     6     3     4 1   
     7     3    12 1   
     8     4     5 ar  
     9     4    10 ar  
    10     5     6 ar  
    11     5    31 1   
    12     6     7 ar  
    13     6    32 1   
    14     7     8 1   
    15     7     9 ar  
    16     8    33 1   
    17     8    34 1   
    18     8    35 1   
    19     9    10 ar  
    20     9    36 1   
    21    10    11 1   
    22    11    12 2   
    23    12    13 1   
    24    13    14 ar  
    25    14    15 ar  
    26    14    37 1   
    27    15    16 ar  
    28    15    38 1   
    29    16    17 1   
    30    17    18 1   
    31    17    39 1   
    32    18    19 2   
    33    18    20 1   
    34    20    21 ar  
    35    20    28 ar  
    36    21    22 ar  
    37    21    40 1   
    38    22    23 1   
    39    22    26 ar  
    40    23    24 1   
    41    23    25 1   
    42    26    27 ar  
    43    26    41 1   
    44    27    28 ar  
    45    27    42 1   
    46    28    43 1   
@<TRIPOS>SUBSTRUCTURE
     1 SKL         1 TEMP              0 ****  ****    0 ROOT
