@<TRIPOS>MOLECULE
SKM
   21    21     1     0     0
SMALL
abcg2


@<TRIPOS>ATOM
      1 O12          3.0980    -0.0820     0.4130 oh         1 SKM      -0.641000
      2 C8           1.7040    -0.0210     0.5740 c6         1 SKM       0.184300
      3 C6           1.1370     1.0470    -0.3450 c6         1 SKM       0.167300
      4 O7           1.8640     2.2410    -0.1460 oh         1 SKM      -0.723000
      5 C5          -0.3440     1.2380    -0.0340 c6         1 SKM      -0.077200
      6 C4          -1.1000    -0.0520     0.0810 ce         1 SKM      -0.126400
      7 C1          -2.6240     0.0050     0.0570 c          1 SKM       0.707200
      8 O2          -3.1260     1.1430    -0.0390 o          1 SKM      -0.721000
      9 O3          -3.2420    -1.0730     0.1430 o          1 SKM      -0.721000
     10 C10         -0.4650    -1.2140     0.2360 c2         1 SKM      -0.320200
     11 C9           1.0270    -1.3610     0.2850 c6         1 SKM       0.173500
     12 O11          1.5380    -1.8680    -0.9360 oh         1 SKM      -0.725000
     13 H12          3.4370    -0.7830     0.9800 ho         1 SKM       0.425000
     14 H8           1.4380     0.2500     1.6090 h1         1 SKM       0.036700
     15 H6           1.2410     0.7050    -1.3850 h1         1 SKM       0.049700
     16 HO7          1.4740     2.9170    -0.7090 ho         1 SKM       0.491000
     17 H51         -0.4310     1.7970     0.9060 hc         1 SKM       0.061200
     18 H52         -0.8030     1.8710    -0.7970 hc         1 SKM       0.061200
     19 H10         -1.0500    -2.1250     0.3160 ha         1 SKM       0.193000
     20 H9           1.2800    -2.0510     1.1050 h1         1 SKM       0.008700
     21 H11          1.0600    -2.6770    -1.1450 ho         1 SKM       0.496000
@<TRIPOS>BOND
     1     1     2 1   
     2     1    13 1   
     3     2     3 1   
     4     2    11 1   
     5     2    14 1   
     6     3     4 1   
     7     3     5 1   
     8     3    15 1   
     9     4    16 1   
    10     5     6 1   
    11     5    17 1   
    12     5    18 1   
    13     6     7 1   
    14     6    10 2   
    15     7     8 1   
    16     7     9 1   
    17    10    11 1   
    18    10    19 1   
    19    11    12 1   
    20    11    20 1   
    21    12    21 1   
@<TRIPOS>SUBSTRUCTURE
     1 SKM         1 TEMP              0 ****  ****    0 ROOT
