@<TRIPOS>MOLECULE
SKM
   21    21     1     0     0
SMALL
No Charge or Current Charge


@<TRIPOS>ATOM
      1 O12          3.1710    -0.1480     0.5580 oh         1 SKM      -0.641000
      2 C8           1.7520     0.0290     0.7280 c6         1 SKM       0.184300
      3 C6           1.1690     1.1020    -0.2520 c6         1 SKM       0.167300
      4 O7           1.8090     2.3860    -0.0910 oh         1 SKM      -0.723000
      5 C5          -0.3540     1.2630    -0.0130 c6         1 SKM      -0.077200
      6 C4          -1.1160    -0.0780     0.0790 ce         1 SKM      -0.126400
      7 C1          -2.6300    -0.0290    -0.0890 c          1 SKM       0.707200
      8 O2          -3.1720     1.0520    -0.2720 o          1 SKM      -0.721000
      9 O3          -3.2620    -1.0750    -0.0270 o          1 SKM      -0.721000
     10 C10         -0.4420    -1.2390     0.3190 c2         1 SKM      -0.320200
     11 C9           1.0610    -1.3500     0.4810 c6         1 SKM       0.173500
     12 O11          1.5710    -1.9600    -0.7100 oh         1 SKM      -0.725000
     13 H12          3.2190    -0.8720    -0.1080 ho         1 SKM       0.425000
     14 H8           1.5350     0.3480     1.7580 h1         1 SKM       0.036700
     15 H6           1.3170     0.7370    -1.2800 h1         1 SKM       0.049700
     16 HO7          1.5230     2.9410    -0.8530 ho         1 SKM       0.491000
     17 H51         -0.5230     1.8210     0.9180 hc         1 SKM       0.061200
     18 H52         -0.7720     1.8780    -0.8210 hc         1 SKM       0.061200
     19 H10         -0.9880    -2.1800     0.4090 ha         1 SKM       0.193000
     20 H9           1.2690    -2.0010     1.3430 h1         1 SKM       0.008700
     21 H11          0.9760    -2.7190    -0.9060 ho         1 SKM       0.496000
@<TRIPOS>BOND
     1     1     2 1   
     2     1    13 1   
     3     2     3 1   
     4     2    11 1   
     5     2    14 1   
     6     3     4 1   
     7     3     5 1   
     8     3    15 1   
     9     4    16 1   
    10     5     6 1   
    11     5    17 1   
    12     5    18 1   
    13     6     7 1   
    14     6    10 2   
    15     7     8 1   
    16     7     9 1   
    17    10    11 1   
    18    10    19 1   
    19    11    12 1   
    20    11    20 1   
    21    12    21 1   
@<TRIPOS>SUBSTRUCTURE
     1 SKM         1 TEMP              0 ****  ****    0 ROOT
