@<TRIPOS>MOLECULE
SKO
   47    48     1     0     0
SMALL
abcg2


@<TRIPOS>ATOM
      1 N02          4.1600    -1.2780    -2.3770 nv         1 SKO      -1.053900
      2 C02          3.9100    -0.7870    -1.1260 ca         1 SKO       0.598900
      3 C03          4.9390    -0.7060    -0.1710 ca         1 SKO      -0.235000
      4 C04          4.6410    -0.2530     1.0980 ca         1 SKO      -0.000300
      5 C07          5.6930    -0.1670     2.1600 c3         1 SKO      -0.052800
      6 C05          3.3170     0.1100     1.3730 ca         1 SKO      -0.218000
      7 N01          2.6580    -0.4390    -0.8530 nb         1 SKO      -0.745000
      8 C06          2.3680     0.0000     0.3730 ca         1 SKO       0.399300
      9 C08          0.9370     0.3880     0.6150 c3         1 SKO      -0.123700
     10 C09          0.4940     1.5650    -0.2620 c3         1 SKO      -0.121700
     11 C12         -0.9550     1.8950    -0.0420 ca         1 SKO       0.402300
     12 C13         -1.3450     3.0920     0.5420 ca         1 SKO      -0.223000
     13 C14         -2.7060     3.2930     0.7530 ca         1 SKO      -0.037000
     14 C15         -3.6180     2.3250     0.3930 ca         1 SKO      -0.238000
     15 N11         -1.8250     0.9570    -0.4010 nb         1 SKO      -0.754000
     16 C16         -3.1300     1.1400    -0.2000 ca         1 SKO       0.623900
     17 N17         -3.9670     0.1400    -0.5970 nh         1 SKO      -0.790300
     18 C17         -5.3690     0.1970    -0.2490 c3         1 SKO       0.216100
     19 C18         -3.4230    -1.1160    -1.0710 c3         1 SKO       0.233800
     20 C19         -2.9460    -2.0320     0.0510 c3         1 SKO       0.128800
     21 N20         -2.4850    -3.2930    -0.4920 n7         1 SKO      -0.854400
     22 C21         -1.8520    -4.1360     0.5010 c3         1 SKO       0.147100
     23 H021         5.1130    -1.2660    -2.6980 hn         1 SKO       0.467000
     24 H022         3.4870    -1.0380    -3.0870 hn         1 SKO       0.467000
     25 H03          5.9500    -0.9920    -0.4350 ha         1 SKO       0.117000
     26 H071         5.6560     0.7920     2.6770 hc         1 SKO       0.045367
     27 H072         5.5400    -0.9420     2.9130 hc         1 SKO       0.045367
     28 H073         6.6930    -0.2950     1.7490 hc         1 SKO       0.045367
     29 H05          3.0350     0.4740     2.3530 ha         1 SKO       0.120000
     30 H081         0.2890    -0.4670     0.4030 hc         1 SKO       0.061200
     31 H082         0.7960     0.6410     1.6670 hc         1 SKO       0.061200
     32 H091         1.1130     2.4390    -0.0470 hc         1 SKO       0.061200
     33 H092         0.6560     1.3050    -1.3110 hc         1 SKO       0.061200
     34 H13         -0.6150     3.8360     0.8270 ha         1 SKO       0.122000
     35 H14         -3.0570     4.2110     1.2070 ha         1 SKO       0.111000
     36 H15         -4.6720     2.4850     0.5660 ha         1 SKO       0.120000
     37 H171        -5.8570     1.0720    -0.6840 h1         1 SKO       0.035367
     38 H172        -5.8690    -0.6830    -0.6450 h1         1 SKO       0.035367
     39 H173        -5.5370     0.2200     0.8320 h1         1 SKO       0.035367
     40 H181        -4.2030    -1.6150    -1.6520 h1         1 SKO       0.063200
     41 H182        -2.5950    -0.9240    -1.7520 h1         1 SKO       0.063200
     42 H191        -2.1090    -1.5510     0.5640 h1         1 SKO       0.036200
     43 H192        -3.7450    -2.1520     0.8010 h1         1 SKO       0.036200
     44 H20         -3.2730    -3.7890    -0.8880 hn         1 SKO       0.399000
     45 H211        -0.9240    -3.6740     0.8420 h1         1 SKO       0.029033
     46 H212        -2.4670    -4.3280     1.3920 h1         1 SKO       0.029033
     47 H213        -1.5960    -5.1000     0.0600 h1         1 SKO       0.029033
@<TRIPOS>BOND
     1     1     2 1   
     2     1    23 1   
     3     1    24 1   
     4     2     3 ar  
     5     2     7 ar  
     6     3     4 ar  
     7     3    25 1   
     8     4     5 1   
     9     4     6 ar  
    10     5    26 1   
    11     5    27 1   
    12     5    28 1   
    13     6     8 ar  
    14     6    29 1   
    15     7     8 ar  
    16     8     9 1   
    17     9    10 1   
    18     9    30 1   
    19     9    31 1   
    20    10    11 1   
    21    10    32 1   
    22    10    33 1   
    23    11    12 ar  
    24    11    15 ar  
    25    12    13 ar  
    26    12    34 1   
    27    13    14 ar  
    28    13    35 1   
    29    14    16 ar  
    30    14    36 1   
    31    15    16 ar  
    32    16    17 1   
    33    17    18 1   
    34    17    19 1   
    35    18    37 1   
    36    18    38 1   
    37    18    39 1   
    38    19    20 1   
    39    19    40 1   
    40    19    41 1   
    41    20    21 1   
    42    20    42 1   
    43    20    43 1   
    44    21    22 1   
    45    21    44 1   
    46    22    45 1   
    47    22    46 1   
    48    22    47 1   
@<TRIPOS>SUBSTRUCTURE
     1 SKO         1 TEMP              0 ****  ****    0 ROOT
