@<TRIPOS>MOLECULE
SKO
   47    48     1     0     0
SMALL
No Charge or Current Charge


@<TRIPOS>ATOM
      1 N02          4.2740    -2.8920    -0.1090 nv         1 SKO      -1.053900
      2 C02          4.1790    -1.6040     0.2280 ca         1 SKO       0.598900
      3 C03          5.2680    -0.7300     0.2460 ca         1 SKO      -0.235000
      4 C04          5.0450     0.6060     0.6080 ca         1 SKO      -0.000300
      5 C07          6.1820     1.6140     0.6550 c3         1 SKO      -0.052800
      6 C05          3.7290     0.9750     0.9310 ca         1 SKO      -0.218000
      7 N01          2.9300    -1.2750     0.5240 nb         1 SKO      -0.745000
      8 C06          2.7050     0.0100     0.8770 ca         1 SKO       0.399300
      9 C08          1.2680     0.3860     1.2140 c3         1 SKO      -0.123700
     10 C09          0.5680     1.1610     0.0710 c3         1 SKO      -0.121700
     11 C12         -0.8550     1.5700     0.4240 ca         1 SKO       0.402300
     12 C13         -1.0980     2.6970     1.2260 ca         1 SKO      -0.223000
     13 C14         -2.4190     3.0410     1.5380 ca         1 SKO      -0.037000
     14 C15         -3.4430     2.2310     1.0290 ca         1 SKO      -0.238000
     15 N11         -1.8440     0.7940    -0.0630 nb         1 SKO      -0.754000
     16 C16         -3.1160     1.1140     0.2340 ca         1 SKO       0.623900
     17 N17         -4.1000     0.2540    -0.3060 nh         1 SKO      -0.790300
     18 C17         -5.5100     0.3370     0.1350 c3         1 SKO       0.216100
     19 C18         -3.7740    -0.8030    -1.3070 c3         1 SKO       0.233800
     20 C19         -3.3470    -2.1660    -0.6890 c3         1 SKO       0.128800
     21 N20         -3.1350    -3.2160    -1.7200 n7         1 SKO      -0.854400
     22 C21         -2.6660    -4.5150    -1.2000 c3         1 SKO       0.147100
     23 H021         5.0730    -3.1700    -0.6680 hn         1 SKO       0.467000
     24 H022         3.3940    -3.3520    -0.3090 hn         1 SKO       0.467000
     25 H03          6.2620    -1.0820    -0.0130 ha         1 SKO       0.117000
     26 H071         5.8320     2.6200     0.3960 hc         1 SKO       0.045367
     27 H072         6.6220     1.6580     1.6580 hc         1 SKO       0.045367
     28 H073         6.9790     1.3500    -0.0510 hc         1 SKO       0.045367
     29 H05          3.4980     1.9960     1.2210 ha         1 SKO       0.120000
     30 H081         0.6820    -0.5120     1.4470 hc         1 SKO       0.061200
     31 H082         1.2590     0.9990     2.1230 hc         1 SKO       0.061200
     32 H091         1.1530     2.0570    -0.1690 hc         1 SKO       0.061200
     33 H092         0.5740     0.5440    -0.8360 hc         1 SKO       0.061200
     34 H13         -0.2700     3.2930     1.5990 ha         1 SKO       0.122000
     35 H14         -2.6430     3.9100     2.1550 ha         1 SKO       0.111000
     36 H15         -4.4750     2.4780     1.2510 ha         1 SKO       0.120000
     37 H171        -5.9800     1.2520    -0.2500 h1         1 SKO       0.035367
     38 H172        -6.0890    -0.5240    -0.2280 h1         1 SKO       0.035367
     39 H173        -5.5710     0.3370     1.2310 h1         1 SKO       0.035367
     40 H181        -4.6510    -0.9780    -1.9450 h1         1 SKO       0.063200
     41 H182        -2.9830    -0.4590    -1.9860 h1         1 SKO       0.063200
     42 H191        -2.4240    -2.0120    -0.1120 h1         1 SKO       0.036200
     43 H192        -4.1240    -2.4870     0.0180 h1         1 SKO       0.036200
     44 H20         -4.0250    -3.3730    -2.2120 hn         1 SKO       0.399000
     45 H211        -1.7080    -4.4040    -0.6750 h1         1 SKO       0.029033
     46 H212        -3.3950    -4.9430    -0.4980 h1         1 SKO       0.029033
     47 H213        -2.5230    -5.2310    -2.0210 h1         1 SKO       0.029033
@<TRIPOS>BOND
     1     1     2 1   
     2     1    23 1   
     3     1    24 1   
     4     2     3 ar  
     5     2     7 ar  
     6     3     4 ar  
     7     3    25 1   
     8     4     5 1   
     9     4     6 ar  
    10     5    26 1   
    11     5    27 1   
    12     5    28 1   
    13     6     8 ar  
    14     6    29 1   
    15     7     8 ar  
    16     8     9 1   
    17     9    10 1   
    18     9    30 1   
    19     9    31 1   
    20    10    11 1   
    21    10    32 1   
    22    10    33 1   
    23    11    12 ar  
    24    11    15 ar  
    25    12    13 ar  
    26    12    34 1   
    27    13    14 ar  
    28    13    35 1   
    29    14    16 ar  
    30    14    36 1   
    31    15    16 ar  
    32    16    17 1   
    33    17    18 1   
    34    17    19 1   
    35    18    37 1   
    36    18    38 1   
    37    18    39 1   
    38    19    20 1   
    39    19    40 1   
    40    19    41 1   
    41    20    21 1   
    42    20    42 1   
    43    20    43 1   
    44    21    22 1   
    45    21    44 1   
    46    22    45 1   
    47    22    46 1   
    48    22    47 1   
@<TRIPOS>SUBSTRUCTURE
     1 SKO         1 TEMP              0 ****  ****    0 ROOT
