@<TRIPOS>MOLECULE
SKQ
   40    42     1     0     0
SMALL
bcc


@<TRIPOS>ATOM
      1 C13        129.2230   166.8050   146.1420 c6         1 SKQ       0.200800
      2 C17        132.1970   166.8450   143.1320 c6         1 SKQ      -0.085400
      3 C20        133.1430   164.2790   142.7460 c6         1 SKQ      -0.071400
      4 C21        131.7130   164.3760   143.2980 c6         1 SKQ      -0.085400
      5 C02        128.8050   166.4230   143.4240 c          1 SKQ       0.706500
      6 C03        127.6400   166.7260   144.3570 c6         1 SKQ       0.122800
      7 C05        126.8510   166.2610   146.6100 cc         1 SKQ       0.135400
      8 C06        126.9090   165.5730   147.7980 cd         1 SKQ      -0.168800
      9 C08        125.7750   165.4860   148.6850 c          1 SKQ       0.699700
     10 C11        125.5710   166.8390   146.2910 cc         1 SKQ       0.306500
     11 C14        130.2230   165.9750   145.3810 c6         1 SKQ       0.096000
     12 C16        131.1140   165.7710   143.0580 c6         1 SKQ       0.101700
     13 C18        133.1760   166.6730   141.9600 c6         1 SKQ      -0.071400
     14 C19        133.3390   165.2010   141.5490 c6         1 SKQ      -0.078400
     15 N04        127.8900   166.3980   145.7390 nh         1 SKQ      -0.672400
     16 N09        124.6580   166.1260   148.2020 ns         1 SKQ      -0.293900
     17 N10        124.5380   166.7620   147.0560 nd         1 SKQ      -0.389300
     18 N15        129.9860   166.0510   143.9460 n          1 SKQ      -0.464800
     19 O01        128.5980   166.5530   142.2240 o          1 SKQ      -0.640500
     20 O12        125.7530   164.8950   149.7550 o          1 SKQ      -0.599500
     21 CL1        128.2790   164.6610   148.2860 cl         1 SKQ      -0.067400
     22 H1         129.3760   166.6850   147.2090 h1         1 SKQ       0.063200
     23 H2         129.3560   167.8710   145.9180 h1         1 SKQ       0.063200
     24 H4         131.7440   167.8380   143.1050 hc         1 SKQ       0.044200
     25 H5         133.3640   163.2450   142.4780 hc         1 SKQ       0.041450
     26 H6         133.8620   164.5500   143.5260 hc         1 SKQ       0.041450
     27 H7         131.7300   164.1380   144.3640 hc         1 SKQ       0.044200
     28 H8         131.0700   163.6310   142.8240 hc         1 SKQ       0.044200
     29 H9         127.4020   167.7880   144.2130 h1         1 SKQ       0.073700
     30 H10        126.7990   166.1460   143.9770 h1         1 SKQ       0.073700
     31 H11        125.4270   167.3870   145.3710 h4         1 SKQ       0.049800
     32 H12        130.1700   164.9390   145.7260 h1         1 SKQ       0.059700
     33 H13        131.2270   166.3420   145.5920 h1         1 SKQ       0.059700
     34 H14        130.7060   165.7960   142.0490 h1         1 SKQ       0.090700
     35 H15        134.1440   167.0900   142.2420 hc         1 SKQ       0.041450
     36 H16        132.8280   167.2530   141.1020 hc         1 SKQ       0.041450
     37 H17        132.6120   164.9420   140.7740 hc         1 SKQ       0.043700
     38 H18        134.3240   165.0450   141.1030 hc         1 SKQ       0.043700
     39 H19        123.8190   166.0950   148.7650 hn         1 SKQ       0.358500
     40 H3         132.7370   166.7760   144.0820 hc         1 SKQ       0.044200
@<TRIPOS>BOND
     1     1    11 1   
     2     1    15 1   
     3     1    22 1   
     4     1    23 1   
     5     2    12 1   
     6     2    13 1   
     7     2    24 1   
     8     2    40 1   
     9     3     4 1   
    10     3    14 1   
    11     3    25 1   
    12     3    26 1   
    13     4    12 1   
    14     4    27 1   
    15     4    28 1   
    16     5     6 1   
    17     5    18 1   
    18     5    19 2   
    19     6    15 1   
    20     6    29 1   
    21     6    30 1   
    22     7     8 2   
    23     7    10 1   
    24     7    15 1   
    25     8     9 1   
    26     8    21 1   
    27     9    16 1   
    28     9    20 2   
    29    10    17 2   
    30    10    31 1   
    31    11    18 1   
    32    11    32 1   
    33    11    33 1   
    34    12    18 1   
    35    12    34 1   
    36    13    14 1   
    37    13    35 1   
    38    13    36 1   
    39    14    37 1   
    40    14    38 1   
    41    16    17 1   
    42    16    39 1   
@<TRIPOS>SUBSTRUCTURE
     1 SKQ         1 TEMP              0 ****  ****    0 ROOT
