@<TRIPOS>MOLECULE
SKQ
   40    42     1     0     0
SMALL
No Charge or Current Charge


@<TRIPOS>ATOM
      1 C13        129.1700   166.7550   146.1460 c6         1 SKQ       0.200800
      2 C17        132.1330   166.8800   142.9900 c6         1 SKQ      -0.085400
      3 C20        133.3360   164.3040   142.7780 c6         1 SKQ      -0.071400
      4 C21        131.8790   164.3510   143.3250 c6         1 SKQ      -0.085400
      5 C02        128.7110   166.3860   143.3110 c          1 SKQ       0.564000
      6 C03        127.5230   166.6560   144.2880 c6         1 SKQ       0.122800
      7 C05        126.7380   166.3350   146.6790 cc         1 SKQ       0.135400
      8 C06        126.7700   165.4520   147.7540 cd         1 SKQ      -0.093200
      9 C08        125.6330   165.3940   148.7180 c          1 SKQ       0.557200
     10 C11        125.5570   167.1680   146.5350 cc         1 SKQ       0.306500
     11 C14        130.1710   165.8970   145.3340 c6         1 SKQ       0.096000
     12 C16        131.1390   165.6890   142.9900 c6         1 SKQ       0.101700
     13 C18        133.2280   166.7110   141.8960 c6         1 SKQ      -0.071400
     14 C19        133.5250   165.2240   141.5490 c6         1 SKQ      -0.078400
     15 N04        127.7750   166.4290   145.7500 nh         1 SKQ      -0.672400
     16 N09        124.6080   166.2750   148.4170 ns         1 SKQ      -0.226900
     17 N10        124.5170   167.1570   147.3650 nd         1 SKQ      -0.389300
     18 N15        129.9500   165.9560   143.8550 n          1 SKQ      -0.397800
     19 O01        128.5640   166.5360   142.1020 o          1 SKQ      -0.565000
     20 O12        125.5780   164.6490   149.6880 o          1 SKQ      -0.524000
     21 Cl1        128.0650   164.3080   148.0430 cl         1 SKQ      -0.143000
     22 H1         129.3350   166.5960   147.2210 h1         1 SKQ       0.063200
     23 H2         129.3730   167.8180   145.9500 h1         1 SKQ       0.063200
     24 H4         131.5960   167.8240   142.8280 hc         1 SKQ       0.044200
     25 H5         133.6060   163.2690   142.5230 hc         1 SKQ       0.041450
     26 H6         134.0340   164.6160   143.5670 hc         1 SKQ       0.041450
     27 H7         131.9230   164.1710   144.4060 hc         1 SKQ       0.044200
     28 H8         131.2990   163.5180   142.9060 hc         1 SKQ       0.044200
     29 H9         127.2250   167.7000   144.1170 h1         1 SKQ       0.073700
     30 H10        126.6990   166.0140   143.9470 h1         1 SKQ       0.073700
     31 H11        125.4540   167.8760   145.7250 h4         1 SKQ       0.049800
     32 H12        130.0670   164.8520   145.6590 h1         1 SKQ       0.059700
     33 H13        131.1910   166.2170   145.5830 h1         1 SKQ       0.059700
     34 H14        130.7860   165.5870   141.9530 h1         1 SKQ       0.090700
     35 H15        134.1490   167.2050   142.2340 hc         1 SKQ       0.041450
     36 H16        132.9220   167.2360   140.9800 hc         1 SKQ       0.041450
     37 H17        132.8580   164.8910   140.7420 hc         1 SKQ       0.043700
     38 H18        134.5480   165.1300   141.1580 hc         1 SKQ       0.043700
     39 H19        123.8300   166.2410   149.0710 hn         1 SKQ       0.358500
     40 H3         132.6130   166.9630   143.9740 hc         1 SKQ       0.044200
@<TRIPOS>BOND
     1     1    11 1   
     2     1    15 1   
     3     1    22 1   
     4     1    23 1   
     5     2    12 1   
     6     2    13 1   
     7     2    24 1   
     8     2    40 1   
     9     3     4 1   
    10     3    14 1   
    11     3    25 1   
    12     3    26 1   
    13     4    12 1   
    14     4    27 1   
    15     4    28 1   
    16     5     6 1   
    17     5    18 1   
    18     5    19 2   
    19     6    15 1   
    20     6    29 1   
    21     6    30 1   
    22     7     8 2   
    23     7    10 1   
    24     7    15 1   
    25     8     9 1   
    26     8    21 1   
    27     9    16 1   
    28     9    20 2   
    29    10    17 2   
    30    10    31 1   
    31    11    18 1   
    32    11    32 1   
    33    11    33 1   
    34    12    18 1   
    35    12    34 1   
    36    13    14 1   
    37    13    35 1   
    38    13    36 1   
    39    14    37 1   
    40    14    38 1   
    41    16    17 1   
    42    16    39 1   
@<TRIPOS>SUBSTRUCTURE
     1 SKQ         1 TEMP              0 ****  ****    0 ROOT
