@<TRIPOS>MOLECULE
SKR
   66    68     1     0     0
SMALL
abcg2


@<TRIPOS>ATOM
      1 C01         14.1010    18.7200     0.4640 c3         1 SKR      -0.088100
      2 C02         14.9540    18.7170    -0.8100 c3         1 SKR      -0.038500
      3 C03         14.4430    17.6890    -1.8400 c3         1 SKR       0.117000
      4 C05         11.9550    17.3120    -2.0430 c          1 SKR       0.596100
      5 C06         12.0500    16.0310    -1.2460 c3         1 SKR      -0.174100
      6 C08         16.3990    18.4460    -0.5010 c2         1 SKR      -0.094400
      7 C09         17.4680    19.1840    -0.8250 c2         1 SKR      -0.109400
      8 C10         18.7620    18.5660    -0.3020 c5         1 SKR       0.039400
      9 C11         18.2870    17.0990    -0.0750 c5         1 SKR       0.167300
     10 C13         16.8110    17.2280     0.2950 c5         1 SKR      -0.081200
     11 C14         19.9130    18.5890    -1.3220 c3         1 SKR      -0.080100
     12 C15         19.2700    19.1530     0.9960 c2         1 SKR      -0.194200
     13 C16         18.8140    20.1460     1.7560 c2         1 SKR      -0.104400
     14 C17         17.5820    21.0230     1.5630 c5         1 SKR      -0.020500
     15 C18         17.3800    21.6550     2.9560 c5         1 SKR      -0.079400
     16 C19         18.7870    21.8170     3.5290 c5         1 SKR      -0.068400
     17 C20         19.5170    20.5500     3.0590 c5         1 SKR      -0.033500
     18 C21         21.0170    20.7320     2.9160 c3         1 SKR       0.164600
     19 C23         22.9660    21.2830     4.1230 c3         1 SKR       0.146900
     20 C24         17.6950    22.0880     0.4270 c3         1 SKR      -0.066700
     21 C25         19.1150    22.5470     0.0950 c3         1 SKR      -0.081100
     22 C26         16.9040    21.6610    -0.8210 c3         1 SKR       0.135300
     23 C28         17.4730    20.4700    -1.6020 c3         1 SKR       0.226500
     24 N04         13.0960    17.9830    -2.3000 ns         1 SKR      -0.511900
     25 O07         10.8680    17.7300    -2.4580 o          1 SKR      -0.618100
     26 O12         19.0990    16.4180     0.8760 oh         1 SKR      -0.653000
     27 O22         21.5680    21.0610     4.1860 os         1 SKR      -0.465000
     28 O27         16.8390    22.7320    -1.7800 oh         1 SKR      -0.683000
     29 O29         16.7230    20.2920    -2.8160 oh         1 SKR      -0.671000
     30 H012        14.4500    19.4850     1.1580 hc         1 SKR       0.038367
     31 H011        13.0570    18.9300     0.2270 hc         1 SKR       0.038367
     32 H013        14.1460    17.7550     0.9720 hc         1 SKR       0.038367
     33 H021        14.8760    19.6930    -1.2860 hc         1 SKR       0.066700
     34 H032        14.4610    16.6880    -1.4180 h1         1 SKR       0.054700
     35 H031        15.1140    17.6950    -2.7010 h1         1 SKR       0.054700
     36 H061        11.0500    15.6170    -1.1420 hc         1 SKR       0.059700
     37 H062        12.6910    15.3050    -1.7490 hc         1 SKR       0.059700
     38 H063        12.4700    16.2130    -0.2560 hc         1 SKR       0.059700
     39 H111        18.3580    16.5880    -1.0420 h1         1 SKR       0.036700
     40 H132        16.7030    17.4110     1.3700 hc         1 SKR       0.059700
     41 H131        16.2380    16.3290     0.0570 hc         1 SKR       0.059700
     42 H143        20.7280    17.9540    -0.9690 hc         1 SKR       0.043033
     43 H142        19.5760    18.2130    -2.2910 hc         1 SKR       0.043033
     44 H141        20.3110    19.5950    -1.4600 hc         1 SKR       0.043033
     45 H151        20.1700    18.6500     1.3370 ha         1 SKR       0.183000
     46 H171        16.7190    20.4030     1.3300 hc         1 SKR       0.059700
     47 H181        16.8190    22.5900     2.9110 hc         1 SKR       0.044200
     48 H182        16.8120    20.9620     3.5830 hc         1 SKR       0.044200
     49 H191        19.2720    22.7020     3.1100 hc         1 SKR       0.050700
     50 H192        18.7970    21.9240     4.6140 hc         1 SKR       0.050700
     51 H201        19.3490    19.7570     3.7970 hc         1 SKR       0.068700
     52 H211        21.4920    19.8180     2.5420 h1         1 SKR       0.026700
     53 H212        21.2310    21.5370     2.2000 h1         1 SKR       0.026700
     54 H233        23.3080    21.5210     5.1290 h1         1 SKR       0.029033
     55 H232        23.4930    20.3900     3.7650 h1         1 SKR       0.029033
     56 H231        23.2040    22.1190     3.4530 h1         1 SKR       0.029033
     57 H241        17.1520    22.9660     0.7920 hc         1 SKR       0.039700
     58 H251        19.5840    23.0140     0.9600 hc         1 SKR       0.040033
     59 H252        19.7520    21.7190    -0.2150 hc         1 SKR       0.040033
     60 H253        19.0920    23.2820    -0.7100 hc         1 SKR       0.040033
     61 H261        15.8860    21.4110    -0.5080 h1         1 SKR       0.039700
     62 H281        18.5020    20.7200    -1.8730 h1         1 SKR       0.057700
     63 H041        12.9730    18.8400    -2.8220 hn         1 SKR       0.314500
     64 H121        18.8960    15.4770     0.8210 ho         1 SKR       0.442000
     65 H271        16.2680    23.4250    -1.4280 ho         1 SKR       0.451000
     66 H291        16.5560    21.1860    -3.1500 ho         1 SKR       0.462000
@<TRIPOS>BOND
     1     1     2 1   
     2     1    30 1   
     3     1    31 1   
     4     1    32 1   
     5     2     3 1   
     6     2     6 1   
     7     2    33 1   
     8     3    24 1   
     9     3    34 1   
    10     3    35 1   
    11     4     5 1   
    12     4    24 1   
    13     4    25 2   
    14     5    36 1   
    15     5    37 1   
    16     5    38 1   
    17     6     7 2   
    18     6    10 1   
    19     7     8 1   
    20     7    23 1   
    21     8     9 1   
    22     8    11 1   
    23     8    12 1   
    24     9    10 1   
    25     9    26 1   
    26     9    39 1   
    27    10    40 1   
    28    10    41 1   
    29    11    42 1   
    30    11    43 1   
    31    11    44 1   
    32    12    13 2   
    33    12    45 1   
    34    13    14 1   
    35    13    17 1   
    36    14    15 1   
    37    14    20 1   
    38    14    46 1   
    39    15    16 1   
    40    15    47 1   
    41    15    48 1   
    42    16    17 1   
    43    16    49 1   
    44    16    50 1   
    45    17    18 1   
    46    17    51 1   
    47    18    27 1   
    48    18    52 1   
    49    18    53 1   
    50    19    27 1   
    51    19    54 1   
    52    19    55 1   
    53    19    56 1   
    54    20    21 1   
    55    20    22 1   
    56    20    57 1   
    57    21    58 1   
    58    21    59 1   
    59    21    60 1   
    60    22    23 1   
    61    22    28 1   
    62    22    61 1   
    63    23    29 1   
    64    23    62 1   
    65    24    63 1   
    66    26    64 1   
    67    28    65 1   
    68    29    66 1   
@<TRIPOS>SUBSTRUCTURE
     1 SKR         1 TEMP              0 ****  ****    0 ROOT
