@<TRIPOS>MOLECULE
SKR
   66    68     1     0     0
SMALL
No Charge or Current Charge


@<TRIPOS>ATOM
      1 C01         14.1050    18.7200     0.4550 c3         1 SKR      -0.088100
      2 C02         14.9490    18.6750    -0.8420 c3         1 SKR      -0.038500
      3 C03         14.4300    17.6490    -1.8800 c3         1 SKR       0.117000
      4 C05         11.8960    17.3840    -1.9110 c          1 SKR       0.596100
      5 C06         11.9640    16.0910    -1.0960 c3         1 SKR      -0.174100
      6 C08         16.4240    18.4210    -0.5380 c2         1 SKR      -0.094400
      7 C09         17.4910    19.1630    -0.8960 c2         1 SKR      -0.109400
      8 C10         18.7900    18.5320    -0.3830 c5         1 SKR       0.039400
      9 C11         18.3340    17.0360    -0.1450 c5         1 SKR       0.167300
     10 C13         16.8590    17.2230     0.2850 c5         1 SKR      -0.081200
     11 C14         19.9300    18.5670    -1.4350 c3         1 SKR      -0.080100
     12 C15         19.3450    19.0970     0.9480 c2         1 SKR      -0.194200
     13 C16         18.8590    20.1140     1.7020 c2         1 SKR      -0.104400
     14 C17         17.5980    20.9670     1.5110 c5         1 SKR      -0.020500
     15 C18         17.3170    21.5040     2.9480 c5         1 SKR      -0.079400
     16 C19         18.7310    21.7810     3.5040 c5         1 SKR      -0.068400
     17 C20         19.5160    20.5240     3.0250 c5         1 SKR      -0.033500
     18 C21         21.0470    20.7610     2.9350 c3         1 SKR       0.164600
     19 C23         22.9320    21.4310     4.2930 c3         1 SKR       0.146900
     20 C24         17.6960    22.0710     0.3910 c3         1 SKR      -0.066700
     21 C25         19.1410    22.5680     0.0860 c3         1 SKR      -0.081100
     22 C26         16.9080    21.6810    -0.9010 c3         1 SKR       0.135300
     23 C28         17.5040    20.4720    -1.6830 c3         1 SKR       0.226500
     24 N04         13.0710    17.9470    -2.3580 ns         1 SKR      -0.511900
     25 O07         10.8290    17.8900    -2.2210 o          1 SKR      -0.618100
     26 O12         19.1040    16.2960     0.8120 oh         1 SKR      -0.653000
     27 O22         21.5220    21.1610     4.2340 os         1 SKR      -0.465000
     28 O27         16.8170    22.8150    -1.7880 oh         1 SKR      -0.683000
     29 O29         16.7960    20.3290    -2.9190 oh         1 SKR      -0.671000
     30 H012        14.5060    19.4680     1.1480 hc         1 SKR       0.038367
     31 H011        13.0660    18.9930     0.2390 hc         1 SKR       0.038367
     32 H013        14.1080    17.7490     0.9640 hc         1 SKR       0.038367
     33 H021        14.8400    19.6550    -1.3130 hc         1 SKR       0.066700
     34 H032        14.4810    16.6370    -1.4620 h1         1 SKR       0.054700
     35 H031        15.0990    17.6690    -2.7510 h1         1 SKR       0.054700
     36 H061        10.9700    15.6940    -0.8600 hc         1 SKR       0.059700
     37 H062        12.5700    15.3560    -1.6360 hc         1 SKR       0.059700
     38 H063        12.5470    16.2620    -0.1860 hc         1 SKR       0.059700
     39 H111        18.3450    16.5040    -1.1080 h1         1 SKR       0.036700
     40 H132        16.7610    17.4360     1.3550 hc         1 SKR       0.059700
     41 H131        16.2670    16.3280     0.0660 hc         1 SKR       0.059700
     42 H143        20.7550    17.9050    -1.1440 hc         1 SKR       0.043033
     43 H142        19.5750    18.2370    -2.4190 hc         1 SKR       0.043033
     44 H141        20.3520    19.5720    -1.5470 hc         1 SKR       0.043033
     45 H151        20.2420    18.6030     1.3200 ha         1 SKR       0.183000
     46 H171        16.7440    20.3330     1.2620 hc         1 SKR       0.059700
     47 H181        16.6740    22.3910     2.9640 hc         1 SKR       0.044200
     48 H182        16.8120    20.7400     3.5530 hc         1 SKR       0.044200
     49 H191        19.1450    22.7120     3.1040 hc         1 SKR       0.050700
     50 H192        18.7350    21.8800     4.5950 hc         1 SKR       0.050700
     51 H201        19.3740    19.7110     3.7460 hc         1 SKR       0.068700
     52 H211        21.5490    19.8400     2.6150 h1         1 SKR       0.026700
     53 H212        21.2510    21.5420     2.1900 h1         1 SKR       0.026700
     54 H233        23.2210    21.7290     5.3090 h1         1 SKR       0.029033
     55 H232        23.5120    20.5410     4.0200 h1         1 SKR       0.029033
     56 H231        23.2010    22.2460     3.6090 h1         1 SKR       0.029033
     57 H241        17.1670    22.9500     0.7780 hc         1 SKR       0.039700
     58 H251        19.6150    22.9910     0.9760 hc         1 SKR       0.040033
     59 H252        19.7790    21.7570    -0.2810 hc         1 SKR       0.040033
     60 H253        19.1370    23.3580    -0.6730 hc         1 SKR       0.040033
     61 H261        15.8930    21.4120    -0.5820 h1         1 SKR       0.039700
     62 H281        18.5420    20.7340    -1.9130 h1         1 SKR       0.057700
     63 H041        12.9540    18.7610    -2.9490 hn         1 SKR       0.314500
     64 H121        18.6800    15.4140     0.8950 ho         1 SKR       0.442000
     65 H271        16.4710    23.5690    -1.2610 ho         1 SKR       0.451000
     66 H291        16.5670    21.2590    -3.1510 ho         1 SKR       0.462000
@<TRIPOS>BOND
     1     1     2 1   
     2     1    30 1   
     3     1    31 1   
     4     1    32 1   
     5     2     3 1   
     6     2     6 1   
     7     2    33 1   
     8     3    24 1   
     9     3    34 1   
    10     3    35 1   
    11     4     5 1   
    12     4    24 1   
    13     4    25 2   
    14     5    36 1   
    15     5    37 1   
    16     5    38 1   
    17     6     7 2   
    18     6    10 1   
    19     7     8 1   
    20     7    23 1   
    21     8     9 1   
    22     8    11 1   
    23     8    12 1   
    24     9    10 1   
    25     9    26 1   
    26     9    39 1   
    27    10    40 1   
    28    10    41 1   
    29    11    42 1   
    30    11    43 1   
    31    11    44 1   
    32    12    13 2   
    33    12    45 1   
    34    13    14 1   
    35    13    17 1   
    36    14    15 1   
    37    14    20 1   
    38    14    46 1   
    39    15    16 1   
    40    15    47 1   
    41    15    48 1   
    42    16    17 1   
    43    16    49 1   
    44    16    50 1   
    45    17    18 1   
    46    17    51 1   
    47    18    27 1   
    48    18    52 1   
    49    18    53 1   
    50    19    27 1   
    51    19    54 1   
    52    19    55 1   
    53    19    56 1   
    54    20    21 1   
    55    20    22 1   
    56    20    57 1   
    57    21    58 1   
    58    21    59 1   
    59    21    60 1   
    60    22    23 1   
    61    22    28 1   
    62    22    61 1   
    63    23    29 1   
    64    23    62 1   
    65    24    63 1   
    66    26    64 1   
    67    28    65 1   
    68    29    66 1   
@<TRIPOS>SUBSTRUCTURE
     1 SKR         1 TEMP              0 ****  ****    0 ROOT
