@<TRIPOS>MOLECULE
SKT
   38    39     1     0     0
SMALL
bcc


@<TRIPOS>ATOM
      1 C01          4.1760    -0.7030     0.2760 ce         1 SKT      -0.123400
      2 C02          4.8240     0.4620     0.2400 c2         1 SKT      -0.276200
      3 C03          4.1500     1.8000     0.1770 c6         1 SKT       0.154300
      4 C04          2.6910     1.7010     0.6210 c6         1 SKT       0.153100
      5 C05          2.0290     0.5500    -0.1150 c6         1 SKT       0.154100
      6 C06          2.6760    -0.7700     0.2750 c6         1 SKT      -0.063200
      7 C07          4.9420    -2.0230     0.3260 c          1 SKT       0.918800
      8 O08          6.1860    -1.9690     0.2810 o          1 SKT      -0.822800
      9 O09          4.2420    -3.0510     0.4150 o          1 SKT      -0.822800
     10 O10          4.1790     2.3310    -1.1370 oh         1 SKT      -0.601800
     11 O11          1.9670     2.8750     0.3680 oh         1 SKT      -0.584800
     12 O12          0.6470     0.5470     0.2570 os         1 SKT      -0.416900
     13 C13         -0.2520     0.0630    -0.5960 c          1 SKT       0.649300
     14 C14         -1.6080     0.1640    -0.0390 ce         1 SKT      -0.198200
     15 C15         -2.6600    -0.2850    -0.7360 cf         1 SKT      -0.056200
     16 C16         -4.0560    -0.2700    -0.3320 ca         1 SKT      -0.093800
     17 O17          0.0250    -0.3900    -1.6830 o          1 SKT      -0.542000
     18 C18         -5.0160    -0.8060    -1.1960 ca         1 SKT      -0.069500
     19 C19         -6.3580    -0.8240    -0.8720 ca         1 SKT      -0.201500
     20 C20         -6.7810    -0.2960     0.3470 ca         1 SKT       0.140100
     21 C21         -5.8390     0.2480     1.2240 ca         1 SKT      -0.201500
     22 C22         -4.5010     0.2610     0.8840 ca         1 SKT      -0.069500
     23 O23         -8.0910    -0.3410     0.6310 oh         1 SKT      -0.497100
     24 H6           5.9090     0.4580     0.2280 ha         1 SKT       0.145000
     25 H5           4.6660     2.4860     0.8670 h1         1 SKT       0.010700
     26 H4           2.7010     1.4650     1.6970 h1         1 SKT       0.038700
     27 H3           2.1210     0.7110    -1.1930 h1         1 SKT       0.087700
     28 H1           2.3380    -1.5620    -0.3950 hc         1 SKT       0.072700
     29 H2           2.3300    -1.0560     1.2750 hc         1 SKT       0.072700
     30 H8           5.0930     2.3220    -1.4400 ho         1 SKT       0.400000
     31 H9           2.3890     3.6010     0.8390 ho         1 SKT       0.391000
     32 H10         -1.7120     0.6070     0.9440 ha         1 SKT       0.142000
     33 H11         -2.4680    -0.7170    -1.7140 ha         1 SKT       0.143000
     34 H12         -4.7010    -1.2210    -2.1460 ha         1 SKT       0.137000
     35 H13         -7.0830    -1.2460    -1.5560 ha         1 SKT       0.135500
     36 H14         -6.1540     0.6570     2.1760 ha         1 SKT       0.135500
     37 H15         -3.7980     0.6890     1.5860 ha         1 SKT       0.137000
     38 H16         -8.2660     0.0450     1.4960 ho         1 SKT       0.424000
@<TRIPOS>BOND
     1     1     2 2   
     2     1     6 1   
     3     1     7 1   
     4     2     3 1   
     5     2    24 1   
     6     3     4 1   
     7     3    10 1   
     8     3    25 1   
     9     4     5 1   
    10     4    11 1   
    11     4    26 1   
    12     5     6 1   
    13     5    12 1   
    14     5    27 1   
    15     6    28 1   
    16     6    29 1   
    17     7     8 1   
    18     7     9 1   
    19    10    30 1   
    20    11    31 1   
    21    12    13 1   
    22    13    14 1   
    23    13    17 2   
    24    14    15 2   
    25    14    32 1   
    26    15    16 1   
    27    15    33 1   
    28    16    18 ar  
    29    16    22 ar  
    30    18    19 ar  
    31    18    34 1   
    32    19    20 ar  
    33    19    35 1   
    34    20    21 ar  
    35    20    23 1   
    36    21    22 ar  
    37    21    36 1   
    38    22    37 1   
    39    23    38 1   
@<TRIPOS>SUBSTRUCTURE
     1 SKT         1 TEMP              0 ****  ****    0 ROOT
