@<TRIPOS>MOLECULE
SKT
   38    39     1     0     0
SMALL
No Charge or Current Charge


@<TRIPOS>ATOM
      1 C01          4.2050    -0.7060     0.2340 ce         1 SKT      -0.123400
      2 C02          4.9020     0.4640     0.3300 c2         1 SKT      -0.326200
      3 C03          4.2730     1.8400     0.4170 c6         1 SKT       0.177500
      4 C04          2.7640     1.7790     0.8050 c6         1 SKT       0.176300
      5 C05          2.0450     0.6970    -0.0540 c6         1 SKT       0.177300
      6 C06          2.6600    -0.6990     0.2330 c6         1 SKT      -0.063200
      7 C07          4.8900    -2.0630     0.1400 c          1 SKT       0.708200
      8 O08          6.1130    -2.1040     0.1300 o          1 SKT      -0.717500
      9 O09          4.2000    -3.0710     0.0880 o          1 SKT      -0.717500
     10 O10          4.4380     2.4680    -0.8570 oh         1 SKT      -0.664000
     11 O11          2.1760     3.0850     0.6440 oh         1 SKT      -0.647000
     12 O12          0.6190     0.6940     0.2060 os         1 SKT      -0.440100
     13 C13         -0.2520     0.0750    -0.6470 c          1 SKT       0.600300
     14 C14         -1.6460     0.1550    -0.1380 ce         1 SKT      -0.248200
     15 C15         -2.7380    -0.3690    -0.7700 cf         1 SKT      -0.106200
     16 C16         -4.1580    -0.3510    -0.3610 ca         1 SKT      -0.093800
     17 O17          0.0690    -0.4680    -1.6950 o          1 SKT      -0.493000
     18 C18         -5.1230    -0.9650    -1.1860 ca         1 SKT      -0.051500
     19 C19         -6.4810    -0.9620    -0.8210 ca         1 SKT      -0.183500
     20 C20         -6.8880    -0.3460     0.3690 ca         1 SKT       0.140100
     21 C21         -5.9380     0.2690     1.1990 ca         1 SKT      -0.183500
     22 C22         -4.5790     0.2680     0.8370 ca         1 SKT      -0.051500
     23 O23         -8.2050    -0.3480     0.7150 oh         1 SKT      -0.536100
     24 H6           5.9930     0.4520     0.3500 ha         1 SKT       0.195000
     25 H5           4.8070     2.4200     1.1840 h1         1 SKT       0.010700
     26 H4           2.6940     1.4740     1.8600 h1         1 SKT       0.038700
     27 H3           2.2080     0.9470    -1.1130 h1         1 SKT       0.087700
     28 H1           2.2890    -1.4120    -0.5140 hc         1 SKT       0.072700
     29 H2           2.3040    -1.0600     1.2080 hc         1 SKT       0.072700
     30 H8           5.3790     2.3420    -1.1050 ho         1 SKT       0.439000
     31 H9           2.6790     3.4760    -0.1070 ho         1 SKT       0.430000
     32 H10         -1.7570     0.6770     0.8090 ha         1 SKT       0.192000
     33 H11         -2.5570    -0.8820    -1.7190 ha         1 SKT       0.193000
     34 H12         -4.8230    -1.4480    -2.1140 ha         1 SKT       0.119000
     35 H13         -7.2160    -1.4390    -1.4650 ha         1 SKT       0.117500
     36 H14         -6.2440     0.7500     2.1250 ha         1 SKT       0.117500
     37 H15         -3.8630     0.7510     1.4950 ha         1 SKT       0.119000
     38 H16         -8.3010     0.1240     1.5690 ho         1 SKT       0.463000
@<TRIPOS>BOND
     1     1     2 2   
     2     1     6 1   
     3     1     7 1   
     4     2     3 1   
     5     2    24 1   
     6     3     4 1   
     7     3    10 1   
     8     3    25 1   
     9     4     5 1   
    10     4    11 1   
    11     4    26 1   
    12     5     6 1   
    13     5    12 1   
    14     5    27 1   
    15     6    28 1   
    16     6    29 1   
    17     7     8 1   
    18     7     9 1   
    19    10    30 1   
    20    11    31 1   
    21    12    13 1   
    22    13    14 1   
    23    13    17 2   
    24    14    15 2   
    25    14    32 1   
    26    15    16 1   
    27    15    33 1   
    28    16    18 ar  
    29    16    22 ar  
    30    18    19 ar  
    31    18    34 1   
    32    19    20 ar  
    33    19    35 1   
    34    20    21 ar  
    35    20    23 1   
    36    21    22 ar  
    37    21    36 1   
    38    22    37 1   
    39    23    38 1   
@<TRIPOS>SUBSTRUCTURE
     1 SKT         1 TEMP              0 ****  ****    0 ROOT
