@<TRIPOS>MOLECULE
SKU
   43    45     1     0     0
SMALL
No Charge or Current Charge


@<TRIPOS>ATOM
      1 C14          8.1010    17.3250   -15.4520 ca         1 SKU      -0.231500
      2 C15          9.2350    18.1590   -15.3760 ca         1 SKU       0.027000
      3 C17          8.3200    19.2480   -13.3960 ca         1 SKU      -0.013000
      4 C22          5.0280    20.3560   -14.1260 cc         1 SKU       0.367000
      5 C26          2.8480    18.2000   -17.9530 c3         1 SKU       0.158900
      6 C16          9.3420    19.1130   -14.3500 ca         1 SKU      -0.164000
      7 C18          7.1820    18.4210   -13.4720 ca         1 SKU      -0.323500
      8 C23          4.6530    20.2300   -15.4280 cd         1 SKU      -0.350600
      9 C29          6.1250    22.2330   -15.0020 cd         1 SKU      -0.143000
     10 C30          6.9680    23.4480   -15.0830 ca         1 SKU      -0.004000
     11 C31          7.1590    24.1180   -16.3140 ca         1 SKU      -0.087000
     12 C32          7.9630    25.2700   -16.3880 ca         1 SKU      -0.105000
     13 C33          8.5880    25.7670   -15.2360 ca         1 SKU       0.118000
     14 C35          8.4100    25.1140   -14.0080 ca         1 SKU      -0.105000
     15 C36          7.6060    23.9630   -13.9310 ca         1 SKU      -0.087000
     16 C37          5.8440    21.4860   -13.8820 cc         1 SKU      -0.160000
     17 C39          7.0730    17.4640   -14.5000 ca         1 SKU       0.069000
     18 N21          4.6970    19.5230   -13.1040 nu         1 SKU      -0.894100
     19 O13          9.3140    15.9090   -17.2580 o          1 SKU      -0.687867
     20 O20          6.2400    19.4540   -11.1720 o          1 SKU      -0.549000
     21 O25          3.6160    19.2360   -17.3160 os         1 SKU      -0.438100
     22 O27          3.3930    18.2320   -15.2760 o          1 SKU      -0.508000
     23 O38          5.1340    17.3420   -12.1300 o          1 SKU      -0.549000
     24 O40          7.3350    14.9400   -16.0810 o          1 SKU      -0.687867
     25 S12          7.9280    16.0780   -16.7980 s6         1 SKU       1.260100
     26 S19          5.8360    18.6130   -12.3020 sy         1 SKU       1.175600
     27 S28          5.3250    21.5240   -16.4250 ss         1 SKU       0.312000
     28 Cl3          9.5930    27.2070   -15.3300 cl         1 SKU      -0.214000
     29 H1          10.0340    18.0760   -16.1100 ha         1 SKU       0.139000
     30 H2           8.4130    19.9990   -12.6140 ha         1 SKU       0.117000
     31 H3           2.7510    18.4020   -19.0270 h1         1 SKU       0.047700
     32 H4           3.3340    17.2220   -17.8330 h1         1 SKU       0.047700
     33 H5           1.8380    18.1420   -17.5260 h1         1 SKU       0.047700
     34 H6          10.2170    19.7550   -14.2970 ha         1 SKU       0.100000
     35 H7           6.6900    23.7600   -17.2260 ha         1 SKU       0.129000
     36 H8           8.1020    25.7770   -17.3400 ha         1 SKU       0.127000
     37 H9           8.8950    25.5000   -13.1150 ha         1 SKU       0.127000
     38 H10          7.4890    23.4790   -12.9670 ha         1 SKU       0.129000
     39 H11          6.2030    21.7060   -12.8850 ha         1 SKU       0.161000
     40 H12          6.1860    16.8340   -14.5690 ha         1 SKU       0.132000
     41 H13          4.0680    18.7920   -13.4140 hn         1 SKU       0.544000
     42 O1           7.0260    16.7820   -17.7220 o          1 SKU      -0.687867
     43 C24          3.8360    19.1400   -15.9690 c          1 SKU       0.655700
@<TRIPOS>BOND
     1     1     2 ar  
     2     1    17 ar  
     3     1    25 1   
     4     2     6 ar  
     5     2    29 1   
     6     3     6 ar  
     7     3     7 ar  
     8     3    30 1   
     9     4     8 2   
    10     4    16 1   
    11     4    18 1   
    12     5    21 1   
    13     5    31 1   
    14     5    32 1   
    15     5    33 1   
    16     6    34 1   
    17     7    17 ar  
    18     7    26 1   
    19     8    27 1   
    20     8    43 1   
    21     9    10 1   
    22     9    16 2   
    23     9    27 1   
    24    10    11 ar  
    25    10    15 ar  
    26    11    12 ar  
    27    11    35 1   
    28    12    13 ar  
    29    12    36 1   
    30    13    14 ar  
    31    13    28 1   
    32    14    15 ar  
    33    14    37 1   
    34    15    38 1   
    35    16    39 1   
    36    17    40 1   
    37    18    26 1   
    38    18    41 1   
    39    19    25 1   
    40    20    26 2   
    41    21    43 1   
    42    22    43 2   
    43    23    26 2   
    44    24    25 1   
    45    25    42 1   
@<TRIPOS>SUBSTRUCTURE
     1 SKU         1 TEMP              0 ****  ****    0 ROOT
