@<TRIPOS>MOLECULE
SKU
   43    45     1     0     0
SMALL
abcg2


@<TRIPOS>ATOM
      1 C14          8.5450    17.3290   -15.2160 ca         1 SKU      -0.231500
      2 C15          9.7690    17.8020   -14.7640 ca         1 SKU       0.027000
      3 C17          8.7000    18.8020   -12.8530 ca         1 SKU      -0.013000
      4 C22          5.1140    20.1730   -14.3450 cc         1 SKU       0.367000
      5 C26          2.0430    18.8630   -17.8850 c3         1 SKU       0.158900
      6 C16          9.8440    18.5330   -13.5860 ca         1 SKU      -0.164000
      7 C18          7.4850    18.3140   -13.3160 ca         1 SKU      -0.323500
      8 C23          4.4550    20.2650   -15.5550 cd         1 SKU      -0.350600
      9 C29          6.0060    22.1450   -15.1730 cd         1 SKU      -0.143000
     10 C30          6.7950    23.3690   -15.2860 ca         1 SKU      -0.004000
     11 C31          7.1870    23.8640   -16.5300 ca         1 SKU      -0.087000
     12 C32          7.9370    25.0230   -16.6330 ca         1 SKU      -0.105000
     13 C33          8.3060    25.6950   -15.4790 ca         1 SKU       0.118000
     14 C35          7.9320    25.2240   -14.2290 ca         1 SKU      -0.105000
     15 C36          7.1770    24.0680   -14.1390 ca         1 SKU      -0.087000
     16 C37          6.0000    21.2570   -14.1300 cc         1 SKU      -0.160000
     17 C39          7.3910    17.5740   -14.4850 ca         1 SKU       0.069000
     18 N21          4.8960    19.1260   -13.4670 nu         1 SKU      -0.894100
     19 O13          9.7900    16.3180   -17.2740 o          1 SKU      -0.687867
     20 O20          6.2900    19.6760   -11.4310 o          1 SKU      -0.549000
     21 O25          3.0270    19.6910   -17.2620 os         1 SKU      -0.438100
     22 O27          3.1480    18.3080   -15.5000 o          1 SKU      -0.508000
     23 O38          5.4950    17.3380   -11.8770 o          1 SKU      -0.549000
     24 O40          7.8450    15.1100   -16.3640 o          1 SKU      -0.687867
     25 S12          8.4160    16.4070   -16.7560 s6         1 SKU       1.260100
     26 S19          6.0170    18.5990   -12.3630 sy         1 SKU       1.175600
     27 S28          4.9130    21.6850   -16.4140 ss         1 SKU       0.312000
     28 CL3          9.2450    27.1410   -15.6010 cl         1 SKU      -0.214000
     29 H1          10.6680    17.6070   -15.3320 ha         1 SKU       0.139000
     30 H2           8.7590    19.3820   -11.9430 ha         1 SKU       0.117000
     31 H3           1.7940    19.3540   -18.8200 h1         1 SKU       0.047700
     32 H4           2.4360    17.8680   -18.0900 h1         1 SKU       0.047700
     33 H5           1.1490    18.7810   -17.2690 h1         1 SKU       0.047700
     34 H6          10.8000    18.9020   -13.2390 ha         1 SKU       0.100000
     35 H7           6.9260    23.3350   -17.4390 ha         1 SKU       0.129000
     36 H8           8.2370    25.3900   -17.6050 ha         1 SKU       0.127000
     37 H9           8.2170    25.7560   -13.3310 ha         1 SKU       0.127000
     38 H10          6.8700    23.7230   -13.1600 ha         1 SKU       0.129000
     39 H11          6.6170    21.3810   -13.2540 ha         1 SKU       0.161000
     40 H12          6.4320    17.2110   -14.8350 ha         1 SKU       0.132000
     41 H13          4.2560    18.4080   -13.8030 hn         1 SKU       0.544000
     42 O1           7.5210    17.2230   -17.5910 o          1 SKU      -0.687867
     43 C24          3.4890    19.3200   -16.0810 c          1 SKU       0.655700
@<TRIPOS>BOND
     1     1     2 ar  
     2     1    17 ar  
     3     1    25 1   
     4     2     6 ar  
     5     2    29 1   
     6     3     6 ar  
     7     3     7 ar  
     8     3    30 1   
     9     4     8 2   
    10     4    16 1   
    11     4    18 1   
    12     5    21 1   
    13     5    31 1   
    14     5    32 1   
    15     5    33 1   
    16     6    34 1   
    17     7    17 ar  
    18     7    26 1   
    19     8    27 1   
    20     8    43 1   
    21     9    10 1   
    22     9    16 2   
    23     9    27 1   
    24    10    11 ar  
    25    10    15 ar  
    26    11    12 ar  
    27    11    35 1   
    28    12    13 ar  
    29    12    36 1   
    30    13    14 ar  
    31    13    28 1   
    32    14    15 ar  
    33    14    37 1   
    34    15    38 1   
    35    16    39 1   
    36    17    40 1   
    37    18    26 1   
    38    18    41 1   
    39    19    25 1   
    40    20    26 2   
    41    21    43 1   
    42    22    43 2   
    43    23    26 2   
    44    24    25 1   
    45    25    42 1   
@<TRIPOS>SUBSTRUCTURE
     1 SKU         1 TEMP              0 ****  ****    0 ROOT
