@<TRIPOS>MOLECULE
SKV
   70    74     1     0     0
SMALL
bcc


@<TRIPOS>ATOM
      1 C2          15.8800    -3.4560    28.1330 c3         1 SKV       0.727200
      2 C5          17.0930    -2.5990    27.9570 ca         1 SKV      -0.225300
      3 C6          17.1620    -1.3300    28.5050 ca         1 SKV      -0.006000
      4 C7          18.3010    -0.5460    28.3440 ca         1 SKV      -0.199600
      5 C8          19.3400    -1.0620    27.5860 ca         1 SKV       0.191900
      6 C11         18.1570    -3.0920    27.2050 ca         1 SKV      -0.037000
      7 C12         18.2930     0.8340    28.9320 c          1 SKV       0.692700
      8 C15         19.5910     2.4880    30.1960 c3         1 SKV       0.036700
      9 C17         20.5230     3.4050    29.3690 c3         1 SKV      -0.067700
     10 C18         19.9420     3.6510    27.9820 c3         1 SKV      -0.091600
     11 C19         21.9510     2.8770    29.2740 c3         1 SKV      -0.091600
     12 N22         19.9850     3.2280    32.5210 n          1 SKV      -0.468800
     13 C23         19.3680     4.5240    32.3060 c6         1 SKV       0.095500
     14 C24         20.4160     5.6290    32.3860 c6         1 SKV      -0.099400
     15 C27         20.6080     3.1230    33.8290 c6         1 SKV       0.095500
     16 C32         22.2500     7.5160    34.5380 c          1 SKV       0.826500
     17 C35         23.3570     6.5210    32.6190 ca         1 SKV       0.031600
     18 C36         24.4620     5.7290    32.7660 ca         1 SKV      -0.050000
     19 C37         25.4160     5.7340    31.7290 ca         1 SKV      -0.151000
     20 C38         26.6260     5.0850    31.5010 cc         1 SKV      -0.137100
     21 F1          15.0030    -2.9360    28.9950 f          1 SKV      -0.231967
     22 F3          15.2310    -3.6360    26.9740 f          1 SKV      -0.231967
     23 F4          16.2010    -4.6770    28.5820 f          1 SKV      -0.231967
     24 F9          20.4340    -0.3240    27.3750 f          1 SKV      -0.130900
     25 C10         19.2840    -2.3190    27.0110 ca         1 SKV      -0.185000
     26 O13         17.2940     1.5300    28.8320 o          1 SKV      -0.597100
     27 N14         19.4130     1.2020    29.5690 ns         1 SKV      -0.546900
     28 C20         20.1450     2.2530    31.6040 c          1 SKV       0.666100
     29 O21         20.7290     1.2060    31.8520 o          1 SKV      -0.612100
     30 C25         21.2400     5.5880    33.6810 c5         1 SKV       0.052400
     31 C26         21.7190     4.1580    33.9640 c6         1 SKV      -0.099400
     32 C28         20.4500     6.1560    34.8520 c          1 SKV       0.706500
     33 N30         21.1030     7.2680    35.2840 n          1 SKV      -0.516400
     34 N34         22.3550     6.5270    33.6200 n          1 SKV      -0.417000
     35 N39         27.0460     5.5280    30.3160 na         1 SKV       0.069800
     36 N40         26.2510     6.4050    29.7200 nc         1 SKV      -0.277400
     37 C42         25.2360     6.5480    30.5750 ca         1 SKV      -0.066000
     38 C43         24.0910     7.3690    30.4530 ca         1 SKV      -0.088000
     39 C44         23.1780     7.3420    31.4660 ca         1 SKV      -0.119000
     40 H1          16.3380    -0.9280    29.0790 ha         1 SKV       0.171000
     41 H2          18.1180    -4.0780    26.7600 ha         1 SKV       0.153000
     42 H3          18.6070     2.9550    30.2480 h1         1 SKV       0.093700
     43 H4          20.5580     4.3700    29.8800 hc         1 SKV       0.046700
     44 H5          18.9160     4.0200    28.0320 hc         1 SKV       0.041200
     45 H6          20.5410     4.3950    27.4560 hc         1 SKV       0.041200
     46 H7          19.9480     2.7420    27.3800 hc         1 SKV       0.041200
     47 H8          22.4320     2.7840    30.2490 hc         1 SKV       0.041200
     48 H9          21.9870     1.9010    28.7860 hc         1 SKV       0.041200
     49 H10         22.5580     3.5600    28.6790 hc         1 SKV       0.041200
     50 H11         18.5940     4.6680    33.0630 h1         1 SKV       0.072450
     51 H12         18.8670     4.5720    31.3440 h1         1 SKV       0.072450
     52 H13         21.1140     5.5070    31.5540 hc         1 SKV       0.065450
     53 H14         19.9400     6.6040    32.2660 hc         1 SKV       0.065450
     54 H15         19.8430     3.2680    34.5930 h1         1 SKV       0.072450
     55 H16         21.0180     2.1260    33.9630 h1         1 SKV       0.072450
     56 H17         19.7690     7.7280    36.7960 h1         1 SKV       0.055367
     57 H18         21.4470     8.1590    37.1460 h1         1 SKV       0.055367
     58 H19         20.4960     9.1330    36.0090 h1         1 SKV       0.055367
     59 H20         24.5990     5.1230    33.6530 ha         1 SKV       0.143000
     60 H21         27.1860     4.3700    32.0790 h4         1 SKV       0.182000
     61 H22         20.1130    -2.6820    26.4180 ha         1 SKV       0.161000
     62 H23         20.1400     0.5200    29.7220 hn         1 SKV       0.341500
     63 H24         22.5020     3.9170    33.2400 hc         1 SKV       0.065450
     64 H25         22.1690     4.0980    34.9570 hc         1 SKV       0.065450
     65 H26         27.9000     5.2490    29.8550 hn         1 SKV       0.323700
     66 H27         23.9470     7.9990    29.5850 ha         1 SKV       0.151000
     67 H28         22.2880     7.9560    31.4070 ha         1 SKV       0.137000
     68 O33         22.9940     8.4540    34.7080 o          1 SKV      -0.602500
     69 O29         19.4250     5.7090    35.3160 o          1 SKV      -0.585500
     70 C31         20.6860     8.1240    36.3700 c3         1 SKV       0.102300
@<TRIPOS>BOND
     1     1     2 1   
     2     1    21 1   
     3     1    22 1   
     4     1    23 1   
     5     2     3 ar  
     6     2     6 ar  
     7     3     4 ar  
     8     3    40 1   
     9     4     5 ar  
    10     4     7 1   
    11     5    24 1   
    12     5    25 ar  
    13     6    25 ar  
    14     6    41 1   
    15     7    26 2   
    16     7    27 1   
    17     8     9 1   
    18     8    27 1   
    19     8    28 1   
    20     8    42 1   
    21     9    10 1   
    22     9    11 1   
    23     9    43 1   
    24    10    44 1   
    25    10    45 1   
    26    10    46 1   
    27    11    47 1   
    28    11    48 1   
    29    11    49 1   
    30    12    13 1   
    31    12    15 1   
    32    12    28 1   
    33    13    14 1   
    34    13    50 1   
    35    13    51 1   
    36    14    30 1   
    37    14    52 1   
    38    14    53 1   
    39    15    31 1   
    40    15    54 1   
    41    15    55 1   
    42    16    33 1   
    43    16    34 1   
    44    16    68 2   
    45    17    18 ar  
    46    17    34 1   
    47    17    39 ar  
    48    18    19 ar  
    49    18    59 1   
    50    19    20 2   
    51    19    37 ar  
    52    20    35 1   
    53    20    60 1   
    54    25    61 1   
    55    27    62 1   
    56    28    29 2   
    57    30    31 1   
    58    30    32 1   
    59    30    34 1   
    60    31    63 1   
    61    31    64 1   
    62    32    33 1   
    63    32    69 2   
    64    33    70 1   
    65    35    36 1   
    66    35    65 1   
    67    36    37 2   
    68    37    38 ar  
    69    38    39 ar  
    70    38    66 1   
    71    39    67 1   
    72    56    70 1   
    73    57    70 1   
    74    58    70 1   
@<TRIPOS>SUBSTRUCTURE
     1 SKV         1 TEMP              0 ****  ****    0 ROOT
