@<TRIPOS>MOLECULE
SKV
   70    74     1     0     0
SMALL
No Charge or Current Charge


@<TRIPOS>ATOM
      1 C2          14.4570    -2.8580    27.4110 c3         1 SKV       0.363300
      2 C5          15.8500    -2.6490    28.0150 ca         1 SKV      -0.225300
      3 C6          16.3210    -1.3390    28.2510 ca         1 SKV       0.012000
      4 C7          17.5970    -1.1020    28.8160 ca         1 SKV      -0.199600
      5 C8          18.3990    -2.2240    29.1430 ca         1 SKV       0.227000
      6 C11         16.6640    -3.7450    28.3620 ca         1 SKV      -0.019000
      7 C12         18.0250     0.3350    29.0310 c          1 SKV       0.625700
      8 C15         19.8380     1.8910    29.9110 c3         1 SKV       0.036700
      9 C17         20.8260     2.3150    28.7740 c3         1 SKV      -0.067700
     10 C18         20.1010     2.6180    27.4420 c3         1 SKV      -0.091600
     11 C19         21.9740     1.2970    28.5640 c3         1 SKV      -0.091600
     12 N22         21.0180     3.1290    31.8330 n          1 SKV      -0.401800
     13 C23         20.3030     4.4130    31.5440 c6         1 SKV       0.095500
     14 C24         21.1060     5.6910    31.8890 c6         1 SKV      -0.099400
     15 C27         21.7880     3.1070    33.1130 c6         1 SKV       0.095500
     16 C32         21.8020     7.6680    34.6130 c          1 SKV       0.617000
     17 C35         23.5540     7.4350    32.8300 ca         1 SKV      -0.061000
     18 C36         24.8000     6.7650    32.8750 ca         1 SKV      -0.032000
     19 C37         25.8980     7.3620    32.2420 ca         1 SKV      -0.151000
     20 C38         27.2410     6.9180    32.1030 cc         1 SKV      -0.187100
     21 F1          13.4900    -2.6990    28.3420 f          1 SKV      -0.110667
     22 F3          14.1990    -1.9770    26.4190 f          1 SKV      -0.110667
     23 F4          14.2950    -4.0930    26.8820 f          1 SKV      -0.110667
     24 F9          19.6350    -2.0910    29.6750 f          1 SKV      -0.166000
     25 C10         17.9310    -3.5260    28.9190 ca         1 SKV      -0.167000
     26 O13         17.3220     1.2700    28.6740 o          1 SKV      -0.597100
     27 N14         19.2340     0.5620    29.6480 ns         1 SKV      -0.479900
     28 C20         20.5190     1.9040    31.3200 c          1 SKV       0.599100
     29 O21         20.6950     0.8600    31.9420 o          1 SKV      -0.612100
     30 C25         21.6800     5.6780    33.3310 c5         1 SKV       0.052400
     31 C26         22.5700     4.4080    33.4080 c6         1 SKV      -0.099400
     32 C28         20.5470     5.7090    34.4200 c          1 SKV       0.564000
     33 N30         20.7330     6.9240    35.0610 n          1 SKV      -0.382400
     34 N34         22.4230     6.9550    33.5830 n          1 SKV      -0.257400
     35 N39         27.9010     7.9210    31.3970 na         1 SKV       0.019500
     36 N40         27.0560     8.9960    31.0850 nc         1 SKV      -0.277400
     37 C42         25.8390     8.5890    31.6360 ca         1 SKV      -0.066000
     38 C43         24.6380     9.3100    31.6500 ca         1 SKV      -0.070000
     39 C44         23.5080     8.7400    32.2760 ca         1 SKV      -0.101000
     40 H1          15.6810    -0.4960    27.9930 ha         1 SKV       0.153000
     41 H2          16.3230    -4.7670    28.2040 ha         1 SKV       0.135000
     42 H3          19.0260     2.6270    29.9610 h1         1 SKV       0.093700
     43 H4          21.3010     3.2550    29.0780 hc         1 SKV       0.046700
     44 H5          19.3000     3.3520    27.5930 hc         1 SKV       0.041200
     45 H6          20.8020     3.0310    26.7070 hc         1 SKV       0.041200
     46 H7          19.6610     1.7090    27.0150 hc         1 SKV       0.041200
     47 H8          22.5280     1.1300    29.4950 hc         1 SKV       0.041200
     48 H9          21.5900     0.3310    28.2130 hc         1 SKV       0.041200
     49 H10         22.6850     1.6690    27.8160 hc         1 SKV       0.041200
     50 H11         19.3570     4.4160    32.1050 h1         1 SKV       0.072450
     51 H12         20.0330     4.4750    30.4820 h1         1 SKV       0.072450
     52 H13         21.9260     5.7980    31.1660 hc         1 SKV       0.065450
     53 H14         20.4640     6.5730    31.7500 hc         1 SKV       0.065450
     54 H15         21.0960     2.8910    33.9400 h1         1 SKV       0.072450
     55 H16         22.5080     2.2760    33.0850 h1         1 SKV       0.072450
     56 H17         18.8650     6.9430    36.0760 h1         1 SKV       0.055367
     57 H18         20.3060     7.0520    37.1290 h1         1 SKV       0.055367
     58 H19         19.7820     8.4660    36.1690 h1         1 SKV       0.055367
     59 H20         24.9280     5.8250    33.4020 ha         1 SKV       0.125000
     60 H21         27.7580     6.0200    32.4250 h4         1 SKV       0.232000
     61 H22         18.5590    -4.3730    29.1800 ha         1 SKV       0.143000
     62 H23         19.7400    -0.2560    29.9640 hn         1 SKV       0.341500
     63 H24         23.3730     4.4700    32.6640 hc         1 SKV       0.065450
     64 H25         23.0510     4.3390    34.3930 hc         1 SKV       0.065450
     65 H26         28.8800     7.9280    31.1190 hn         1 SKV       0.374000
     66 H27         24.5810    10.3000    31.2020 ha         1 SKV       0.133000
     67 H28         22.5810     9.3080    32.3090 ha         1 SKV       0.119000
     68 O33         22.1470     8.7540    35.0570 o          1 SKV      -0.527000
     69 O29         19.6840     4.8860    34.7000 o          1 SKV      -0.510000
     70 C31         19.8700     7.3720    36.1740 c3         1 SKV       0.102300
@<TRIPOS>BOND
     1     1     2 1   
     2     1    21 1   
     3     1    22 1   
     4     1    23 1   
     5     2     3 ar  
     6     2     6 ar  
     7     3     4 ar  
     8     3    40 1   
     9     4     5 ar  
    10     4     7 1   
    11     5    24 1   
    12     5    25 ar  
    13     6    25 ar  
    14     6    41 1   
    15     7    26 2   
    16     7    27 1   
    17     8     9 1   
    18     8    27 1   
    19     8    28 1   
    20     8    42 1   
    21     9    10 1   
    22     9    11 1   
    23     9    43 1   
    24    10    44 1   
    25    10    45 1   
    26    10    46 1   
    27    11    47 1   
    28    11    48 1   
    29    11    49 1   
    30    12    13 1   
    31    12    15 1   
    32    12    28 1   
    33    13    14 1   
    34    13    50 1   
    35    13    51 1   
    36    14    30 1   
    37    14    52 1   
    38    14    53 1   
    39    15    31 1   
    40    15    54 1   
    41    15    55 1   
    42    16    33 1   
    43    16    34 1   
    44    16    68 2   
    45    17    18 ar  
    46    17    34 1   
    47    17    39 ar  
    48    18    19 ar  
    49    18    59 1   
    50    19    20 2   
    51    19    37 ar  
    52    20    35 1   
    53    20    60 1   
    54    25    61 1   
    55    27    62 1   
    56    28    29 2   
    57    30    31 1   
    58    30    32 1   
    59    30    34 1   
    60    31    63 1   
    61    31    64 1   
    62    32    33 1   
    63    32    69 2   
    64    33    70 1   
    65    35    36 1   
    66    35    65 1   
    67    36    37 2   
    68    37    38 ar  
    69    38    39 ar  
    70    38    66 1   
    71    39    67 1   
    72    56    70 1   
    73    57    70 1   
    74    58    70 1   
@<TRIPOS>SUBSTRUCTURE
     1 SKV         1 TEMP              0 ****  ****    0 ROOT
