@<TRIPOS>MOLECULE
SKW
   41    43     1     0     0
SMALL
abcg2


@<TRIPOS>ATOM
      1 C6          27.6530    78.1490    17.7260 ca         1 SKW       0.296500
      2 C7          27.6080    79.4810    17.3430 ca         1 SKW      -0.102000
      3 C15         29.5210    75.5650    19.6980 ca         1 SKW      -0.021000
      4 C21         31.3120    75.1730    21.2360 ca         1 SKW      -0.088000
      5 BR1         24.2750    79.4270    14.9140 br         1 SKW      -0.063100
      6 C2          25.6750    78.9500    16.0660 ca         1 SKW      -0.067900
      7 C3          25.7940    77.6320    16.4990 ca         1 SKW       0.370900
      8 N5          26.7650    77.2550    17.3090 nb         1 SKW      -0.681000
      9 C9          26.5960    79.8920    16.4910 ca         1 SKW      -0.055000
     10 C11         28.7410    77.6760    18.6490 c          1 SKW       0.514600
     11 O12         29.5670    78.4570    19.0880 o          1 SKW      -0.582100
     12 N13         28.6860    76.3540    18.9030 ns         1 SKW      -0.125000
     13 C16         29.2620    74.1910    19.6900 ca         1 SKW      -0.145000
     14 C18         30.0130    73.3040    20.4440 ca         1 SKW      -0.053300
     15 C19         31.0500    73.8140    21.2270 ca         1 SKW      -0.136000
     16 C23         30.5610    76.0630    20.4790 ca         1 SKW      -0.133000
     17 C25         29.7270    71.8000    20.4340 c6         1 SKW       0.224500
     18 N26         28.5610    71.5210    19.6230 n2         1 SKW      -0.701900
     19 C27         28.6070    71.1210    18.4220 c2         1 SKW       0.700100
     20 S28         30.0340    70.8380    17.4040 ss         1 SKW      -0.403200
     21 C29         31.3510    71.3540    18.5370 c6         1 SKW       0.068600
     22 C32         30.9780    71.0410    19.9700 c6         1 SKW      -0.104400
     23 N35         27.4630    70.7810    17.7550 nv         1 SKW      -1.013200
     24 C38         29.3750    71.3530    21.8570 c3         1 SKW      -0.070100
     25 H1          28.3460    80.1860    17.6960 ha         1 SKW       0.155000
     26 H2          32.1190    75.5570    21.8460 ha         1 SKW       0.115000
     27 H3          25.0900    76.8710    16.1830 h4         1 SKW       0.039100
     28 H4          26.5360    80.9240    16.1720 ha         1 SKW       0.141000
     29 H5          27.9270    75.8700    18.4360 hn         1 SKW       0.182000
     30 H6          28.4450    73.8170    19.0850 ha         1 SKW       0.122000
     31 H7          31.6590    73.1560    21.8340 ha         1 SKW       0.112000
     32 H8          30.7890    77.1160    20.5100 ha         1 SKW       0.146000
     33 H9          32.2370    70.7970    18.2330 h1         1 SKW       0.078700
     34 H10         31.5580    72.4150    18.3970 h1         1 SKW       0.078700
     35 H11         30.8080    69.9670    20.0830 hc         1 SKW       0.064700
     36 H12         31.8230    71.2940    20.6110 hc         1 SKW       0.064700
     37 H13         27.4550    70.8760    16.7510 hn         1 SKW       0.470000
     38 H14         26.6090    71.0880    18.1960 hn         1 SKW       0.470000
     39 H15         30.1960    71.5300    22.5530 hc         1 SKW       0.043700
     40 H16         28.4980    71.8910    22.2180 hc         1 SKW       0.043700
     41 H17         29.1500    70.2860    21.8670 hc         1 SKW       0.043700
@<TRIPOS>BOND
     1     1     2 ar  
     2     1     8 ar  
     3     1    10 1   
     4     2     9 ar  
     5     2    25 1   
     6     3    12 1   
     7     3    13 ar  
     8     3    16 ar  
     9     4    15 ar  
    10     4    16 ar  
    11     4    26 1   
    12     5     6 1   
    13     6     7 ar  
    14     6     9 ar  
    15     7     8 ar  
    16     7    27 1   
    17     9    28 1   
    18    10    11 2   
    19    10    12 1   
    20    12    29 1   
    21    13    14 ar  
    22    13    30 1   
    23    14    15 ar  
    24    14    17 1   
    25    15    31 1   
    26    16    32 1   
    27    17    18 1   
    28    17    22 1   
    29    17    24 1   
    30    18    19 2   
    31    19    20 1   
    32    19    23 1   
    33    20    21 1   
    34    21    22 1   
    35    21    33 1   
    36    21    34 1   
    37    22    35 1   
    38    22    36 1   
    39    23    37 1   
    40    23    38 1   
    41    24    39 1   
    42    24    40 1   
    43    24    41 1   
@<TRIPOS>SUBSTRUCTURE
     1 SKW         1 TEMP              0 ****  ****    0 ROOT
