@<TRIPOS>MOLECULE
SKW
   41    43     1     0     0
SMALL
No Charge or Current Charge


@<TRIPOS>ATOM
      1 C6          27.6050    78.2110    17.6870 ca         1 SKW       0.296500
      2 C7          27.4930    79.5800    17.3510 ca         1 SKW      -0.102000
      3 C15         29.5530    75.5520    19.6910 ca         1 SKW      -0.021000
      4 C21         31.4000    75.1450    21.2270 ca         1 SKW      -0.088000
      5 Br1         24.1860    79.5630    14.7760 br         1 SKW      -0.063100
      6 C2          25.5930    79.0460    15.9670 ca         1 SKW      -0.067900
      7 C3          25.7570    77.7000    16.3390 ca         1 SKW       0.370900
      8 N5          26.7360    77.2820    17.1780 nb         1 SKW      -0.681000
      9 C9          26.4760    80.0080    16.4810 ca         1 SKW      -0.055000
     10 C11         28.7170    77.7550    18.6370 c          1 SKW       0.514600
     11 O12         29.5290    78.5390    19.1270 o          1 SKW      -0.582100
     12 N13         28.7220    76.3860    18.8900 ns         1 SKW      -0.125000
     13 C16         29.2670    74.1720    19.7000 ca         1 SKW      -0.145000
     14 C18         30.0360    73.2580    20.4640 ca         1 SKW      -0.053300
     15 C19         31.1070    73.7730    21.2280 ca         1 SKW      -0.136000
     16 C23         30.6290    76.0340    20.4630 ca         1 SKW      -0.133000
     17 C25         29.7450    71.7240    20.4770 c6         1 SKW       0.224500
     18 N26         28.5360    71.3760    19.6910 n2         1 SKW      -0.701900
     19 C27         28.5770    71.0640    18.4570 c2         1 SKW       0.700100
     20 S28         30.0000    70.8920    17.4100 ss         1 SKW      -0.403200
     21 C29         31.3710    71.2860    18.5660 c6         1 SKW       0.068600
     22 C32         30.9940    70.9200    20.0090 c6         1 SKW      -0.104400
     23 N35         27.4630    70.7850    17.7560 nv         1 SKW      -1.013200
     24 C38         29.3960    71.3010    21.9350 c3         1 SKW      -0.070100
     25 H1          28.1910    80.3040    17.7640 ha         1 SKW       0.155000
     26 H2          32.2290    75.5220    21.8220 ha         1 SKW       0.115000
     27 H3          25.0860    76.9330    15.9550 h4         1 SKW       0.039100
     28 H4          26.3760    81.0580    16.2120 ha         1 SKW       0.141000
     29 H5          27.9850    75.8890    18.4050 hn         1 SKW       0.182000
     30 H6          28.4320    73.8210    19.1000 ha         1 SKW       0.122000
     31 H7          31.7240    73.1120    21.8310 ha         1 SKW       0.112000
     32 H8          30.8860    77.0880    20.4880 ha         1 SKW       0.146000
     33 H9          32.2680    70.7360    18.2470 h1         1 SKW       0.078700
     34 H10         31.5890    72.3610    18.4910 h1         1 SKW       0.078700
     35 H11         30.7960    69.8420    20.0730 hc         1 SKW       0.064700
     36 H12         31.8500    71.1110    20.6680 hc         1 SKW       0.064700
     37 H13         27.5710    70.9520    16.7650 hn         1 SKW       0.470000
     38 H14         26.6320    71.1800    18.1760 hn         1 SKW       0.470000
     39 H15         30.2370    71.4600    22.6190 hc         1 SKW       0.043700
     40 H16         28.5460    71.8750    22.3220 hc         1 SKW       0.043700
     41 H17         29.1310    70.2380    21.9920 hc         1 SKW       0.043700
@<TRIPOS>BOND
     1     1     2 ar  
     2     1     8 ar  
     3     1    10 1   
     4     2     9 ar  
     5     2    25 1   
     6     3    12 1   
     7     3    13 ar  
     8     3    16 ar  
     9     4    15 ar  
    10     4    16 ar  
    11     4    26 1   
    12     5     6 1   
    13     6     7 ar  
    14     6     9 ar  
    15     7     8 ar  
    16     7    27 1   
    17     9    28 1   
    18    10    11 2   
    19    10    12 1   
    20    12    29 1   
    21    13    14 ar  
    22    13    30 1   
    23    14    15 ar  
    24    14    17 1   
    25    15    31 1   
    26    16    32 1   
    27    17    18 1   
    28    17    22 1   
    29    17    24 1   
    30    18    19 2   
    31    19    20 1   
    32    19    23 1   
    33    20    21 1   
    34    21    22 1   
    35    21    33 1   
    36    21    34 1   
    37    22    35 1   
    38    22    36 1   
    39    23    37 1   
    40    23    38 1   
    41    24    39 1   
    42    24    40 1   
    43    24    41 1   
@<TRIPOS>SUBSTRUCTURE
     1 SKW         1 TEMP              0 ****  ****    0 ROOT
