@<TRIPOS>MOLECULE
SKY
   45    48     1     0     0
SMALL
No Charge or Current Charge


@<TRIPOS>ATOM
      1 C10         -3.6410     0.2390     0.8200 ca         1 SKY      -0.065000
      2 C11         -5.0000     0.0370     0.5120 ca         1 SKY      -0.040000
      3 C12         -5.9840     0.1840     1.5090 ca         1 SKY      -0.092000
      4 C13         -7.3390    -0.0200     1.1970 ca         1 SKY      -0.110000
      5 C14         -7.7160    -0.3700    -0.1110 ca         1 SKY      -0.104000
      6 C15         -6.7380    -0.5170    -1.1090 ca         1 SKY      -0.101000
      7 C16         -5.3790    -0.3150    -0.8000 ca         1 SKY      -0.033000
      8 C17         -4.3950    -0.4570    -1.7930 ca         1 SKY      -0.100000
      9 C18         -3.0390    -0.2540    -1.4830 ca         1 SKY      -0.099000
     10 C9          -2.6420     0.0880    -0.1690 ca         1 SKY      -0.110500
     11 C8          -1.2290     0.3230     0.1730 cc         1 SKY       0.260500
     12 C7          -0.2040     0.0260    -0.6710 cd         1 SKY      -0.173000
     13 N3          -0.7790     0.8360     1.3550 nc         1 SKY      -0.352000
     14 N2           0.5290     0.8840     1.2990 nd         1 SKY      -0.199800
     15 N1           0.9020     0.3960     0.0640 na         1 SKY       0.116800
     16 C1           2.3140     0.2860    -0.3830 c6         1 SKY       0.293300
     17 O5           2.9020    -0.8690     0.2660 os         1 SKY      -0.438000
     18 C5           4.2550    -1.1710    -0.1660 c6         1 SKY       0.176300
     19 C6           4.7130    -2.4920     0.5350 c3         1 SKY       0.172600
     20 O6           3.8270    -3.6060     0.2900 oh         1 SKY      -0.712000
     21 C4           5.1920     0.0350     0.1630 c6         1 SKY       0.143300
     22 O4           6.5420    -0.1840    -0.2880 oh         1 SKY      -0.716000
     23 C3           4.6230     1.3240    -0.5010 c6         1 SKY       0.134300
     24 O3           5.4380     2.4640    -0.1770 oh         1 SKY      -0.661000
     25 C2           3.1530     1.5690    -0.0550 c6         1 SKY       0.106300
     26 O2           2.6410     2.7600    -0.7080 oh         1 SKY      -0.720000
     27 H10         -3.3630     0.5110     1.8360 ha         1 SKY       0.135000
     28 H12         -5.7010     0.4550     2.5240 ha         1 SKY       0.116000
     29 H13         -8.0970     0.0940     1.9690 ha         1 SKY       0.113000
     30 H14         -8.7650    -0.5270    -0.3510 ha         1 SKY       0.112000
     31 H15         -7.0360    -0.7870    -2.1190 ha         1 SKY       0.112000
     32 H17         -4.6780    -0.7220    -2.8100 ha         1 SKY       0.113000
     33 H18         -2.3070    -0.3620    -2.2780 ha         1 SKY       0.107000
     34 H7          -0.1640    -0.3980    -1.6650 h4         1 SKY       0.172000
     35 H1           2.2820     0.1270    -1.4700 h2         1 SKY       0.064700
     36 H5           4.2510    -1.3450    -1.2520 h1         1 SKY       0.063700
     37 H6           5.7240    -2.7350     0.1830 h1         1 SKY       0.040700
     38 H6A          4.7840    -2.2970     1.6140 h1         1 SKY       0.040700
     39 HO6          4.1650    -4.3650     0.8200 ho         1 SKY       0.509000
     40 H4           5.1860     0.1800     1.2540 h1         1 SKY       0.059700
     41 HO4          6.9470     0.7180    -0.3160 ho         1 SKY       0.528000
     42 H3           4.6220     1.1730    -1.5910 h1         1 SKY       0.053700
     43 HO3          4.8780     3.2440    -0.3990 ho         1 SKY       0.467000
     44 H2           3.1500     1.7050     1.0380 h1         1 SKY       0.085700
     45 HO2          1.8050     3.0180    -0.2470 ho         1 SKY       0.529000
@<TRIPOS>BOND
     1     1     2 ar  
     2     1    10 ar  
     3     1    27 1   
     4     2     3 ar  
     5     2     7 ar  
     6     3     4 ar  
     7     3    28 1   
     8     4     5 ar  
     9     4    29 1   
    10     5     6 ar  
    11     5    30 1   
    12     6     7 ar  
    13     6    31 1   
    14     7     8 ar  
    15     8     9 ar  
    16     8    32 1   
    17     9    10 ar  
    18     9    33 1   
    19    10    11 1   
    20    11    12 2   
    21    11    13 1   
    22    12    15 1   
    23    12    34 1   
    24    13    14 2   
    25    14    15 1   
    26    15    16 1   
    27    16    17 1   
    28    16    25 1   
    29    16    35 1   
    30    17    18 1   
    31    18    19 1   
    32    18    21 1   
    33    18    36 1   
    34    19    20 1   
    35    19    37 1   
    36    19    38 1   
    37    20    39 1   
    38    21    22 1   
    39    21    23 1   
    40    21    40 1   
    41    22    41 1   
    42    23    24 1   
    43    23    25 1   
    44    23    42 1   
    45    24    43 1   
    46    25    26 1   
    47    25    44 1   
    48    26    45 1   
@<TRIPOS>SUBSTRUCTURE
     1 SKY         1 TEMP              0 ****  ****    0 ROOT
