@<TRIPOS>MOLECULE
SKY
   45    48     1     0     0
SMALL
bcc


@<TRIPOS>ATOM
      1 C10         -3.5590     0.2810     0.7250 ca         1 SKY      -0.083000
      2 C11         -4.9370     0.0760     0.4970 ca         1 SKY      -0.040000
      3 C12         -5.9040     0.3490     1.4940 ca         1 SKY      -0.110000
      4 C13         -7.2350     0.1440     1.2490 ca         1 SKY      -0.128000
      5 C14         -7.6610    -0.3450    -0.0050 ca         1 SKY      -0.122000
      6 C15         -6.7480    -0.6190    -0.9870 ca         1 SKY      -0.119000
      7 C16         -5.3680    -0.4160    -0.7620 ca         1 SKY      -0.033000
      8 C17         -4.3930    -0.6850    -1.7520 ca         1 SKY      -0.118000
      9 C18         -3.0670    -0.4780    -1.5050 ca         1 SKY      -0.117000
     10 C9          -2.6280     0.0130    -0.2500 ca         1 SKY      -0.110500
     11 C8          -1.2060     0.2280    -0.0030 cc         1 SKY       0.325800
     12 C7          -0.1230    -0.0050    -0.8160 cd         1 SKY      -0.205600
     13 N3          -0.7340     0.7330     1.1640 nc         1 SKY      -0.352000
     14 N2           0.5430     0.8180     1.1120 nd         1 SKY      -0.199800
     15 N1           0.9310     0.3800    -0.0770 na         1 SKY       0.095400
     16 C1           2.3290     0.3090    -0.4220 c6         1 SKY       0.240800
     17 O5           2.8510    -0.8290     0.1920 os         1 SKY      -0.391600
     18 C5           4.1910    -1.0970    -0.1880 c6         1 SKY       0.153100
     19 C6           4.6030    -2.3930     0.4770 c3         1 SKY       0.149400
     20 O6           3.7970    -3.4330    -0.0220 oh         1 SKY      -0.589800
     21 C4           5.0900     0.0710     0.2240 c6         1 SKY       0.120100
     22 O4           6.3860    -0.2020    -0.2430 oh         1 SKY      -0.593800
     23 C3           4.5510     1.3730    -0.3610 c6         1 SKY       0.111100
     24 O3           5.3540     2.4190     0.1240 oh         1 SKY      -0.598800
     25 C2           3.0880     1.5610     0.0230 c6         1 SKY       0.083100
     26 O2           2.5990     2.7080    -0.6210 oh         1 SKY      -0.597800
     27 H10         -3.2410     0.6560     1.6900 ha         1 SKY       0.153000
     28 H12         -5.5750     0.7240     2.4560 ha         1 SKY       0.134000
     29 H13         -7.9670     0.3560     2.0160 ha         1 SKY       0.131000
     30 H14         -8.7160    -0.5020    -0.1860 ha         1 SKY       0.130000
     31 H15         -7.0750    -0.9950    -1.9490 ha         1 SKY       0.130000
     32 H17         -4.7130    -1.0620    -2.7160 ha         1 SKY       0.131000
     33 H18         -2.3450    -0.6910    -2.2840 ha         1 SKY       0.125000
     34 H7          -0.0180    -0.3950    -1.8140 h4         1 SKY       0.190000
     35 H1           2.3720     0.2270    -1.5170 h2         1 SKY       0.064700
     36 H5           4.2490    -1.2170    -1.2810 h1         1 SKY       0.063700
     37 H6           5.6640    -2.5620     0.2670 h1         1 SKY       0.040700
     38 H6A          4.5010    -2.2810     1.5650 h1         1 SKY       0.040700
     39 HO6          4.0480    -4.2440     0.4290 ho         1 SKY       0.410000
     40 H4           5.0720     0.1520     1.3220 h1         1 SKY       0.059700
     41 HO4          6.9690     0.5060     0.0500 ho         1 SKY       0.429000
     42 H3           4.6160     1.3050    -1.4590 h1         1 SKY       0.053700
     43 HO3          5.1380     3.2210    -0.3620 ho         1 SKY       0.428000
     44 H2           3.0190     1.6470     1.1140 h1         1 SKY       0.085700
     45 HO2          1.8790     3.0770    -0.1010 ho         1 SKY       0.430000
@<TRIPOS>BOND
     1     1     2 ar  
     2     1    10 ar  
     3     1    27 1   
     4     2     3 ar  
     5     2     7 ar  
     6     3     4 ar  
     7     3    28 1   
     8     4     5 ar  
     9     4    29 1   
    10     5     6 ar  
    11     5    30 1   
    12     6     7 ar  
    13     6    31 1   
    14     7     8 ar  
    15     8     9 ar  
    16     8    32 1   
    17     9    10 ar  
    18     9    33 1   
    19    10    11 1   
    20    11    12 2   
    21    11    13 1   
    22    12    15 1   
    23    12    34 1   
    24    13    14 2   
    25    14    15 1   
    26    15    16 1   
    27    16    17 1   
    28    16    25 1   
    29    16    35 1   
    30    17    18 1   
    31    18    19 1   
    32    18    21 1   
    33    18    36 1   
    34    19    20 1   
    35    19    37 1   
    36    19    38 1   
    37    20    39 1   
    38    21    22 1   
    39    21    23 1   
    40    21    40 1   
    41    22    41 1   
    42    23    24 1   
    43    23    25 1   
    44    23    42 1   
    45    24    43 1   
    46    25    26 1   
    47    25    44 1   
    48    26    45 1   
@<TRIPOS>SUBSTRUCTURE
     1 SKY         1 TEMP              0 ****  ****    0 ROOT
