@<TRIPOS>MOLECULE
SL0
   61    64     1     0     0
SMALL
bcc


@<TRIPOS>ATOM
      1 C1           5.2510     3.5330     1.4750 c3         1 SL0      -0.156100
      2 C2           3.9490     2.7940     1.4500 c          1 SL0       0.644100
      3 O1           3.1340     2.7860     2.3370 o          1 SL0      -0.536000
      4 O2           3.7830     2.1480     0.2950 os         1 SL0      -0.409900
      5 C3           2.5970     1.3870     0.0910 c6         1 SL0       0.146100
      6 C4           1.4380     2.2620    -0.3680 c6         1 SL0       0.108100
      7 O3           1.8640     2.9810    -1.4940 oh         1 SL0      -0.575800
      8 C5           2.9200     0.3560    -0.9780 c6         1 SL0       0.119100
      9 O4           3.9080    -0.5240    -0.4550 os         1 SL0      -0.435900
     10 C6           5.1530    -0.5070    -0.9390 c          1 SL0       0.651100
     11 O5           5.5060     0.1720    -1.8670 o          1 SL0      -0.519000
     12 C7           6.0380    -1.4290    -0.1570 c3         1 SL0      -0.157100
     13 C8           1.6770    -0.4840    -1.2850 c6         1 SL0       0.145100
     14 C9           1.8870    -1.4270    -2.4490 c3         1 SL0      -0.086100
     15 O6           0.5870     0.3640    -1.6250 os         1 SL0      -0.410600
     16 C10          0.2510     1.3650    -0.7270 c6         1 SL0       0.305900
     17 O7          -0.2480     0.8450     0.4930 os         1 SL0      -0.331900
     18 C11         -1.5240     0.3810     0.4490 cc         1 SL0      -0.094100
     19 C12         -2.6050     1.3650     0.3860 c          1 SL0       0.594900
     20 O8          -2.3570     2.5630     0.4060 o          1 SL0      -0.527100
     21 C13         -1.7720    -0.9430     0.5090 cd         1 SL0       0.189900
     22 C14         -0.7720    -2.0030     0.6540 ca         1 SL0      -0.109800
     23 C15          0.2000    -1.9440     1.6500 ca         1 SL0      -0.044500
     24 C16          1.1530    -2.9400     1.7690 ca         1 SL0      -0.206000
     25 C17          1.1510    -4.0160     0.8830 ca         1 SL0       0.161100
     26 O9           2.0570    -5.0050     0.9370 oh         1 SL0      -0.490100
     27 C18          0.1710    -4.0910    -0.1080 ca         1 SL0      -0.206000
     28 C19         -0.7820    -3.0960    -0.2130 ca         1 SL0      -0.044500
     29 O10         -3.0260    -1.4210     0.4430 os         1 SL0      -0.206200
     30 C20         -4.0910    -0.6080     0.2980 ca         1 SL0       0.230100
     31 C21         -5.3120    -1.2490     0.1860 ca         1 SL0      -0.248000
     32 C22         -6.4490    -0.4660     0.0540 ca         1 SL0       0.243100
     33 O11         -7.6220    -1.0950    -0.0580 oh         1 SL0      -0.480100
     34 C23         -6.3560     0.9270     0.0420 ca         1 SL0      -0.381000
     35 C24         -5.1250     1.5490     0.1560 ca         1 SL0       0.270100
     36 C25         -3.9390     0.7850     0.2820 ca         1 SL0      -0.301600
     37 O12         -5.0230     2.8780     0.1440 oh         1 SL0      -0.447100
     38 H733         5.1820     4.4130     0.8320 hc         1 SL0       0.070700
     39 H731         5.4810     3.8620     2.4850 hc         1 SL0       0.070700
     40 H732         6.0660     2.9180     1.0960 hc         1 SL0       0.070700
     41 H23          2.3150     0.8750     1.0160 h1         1 SL0       0.088700
     42 H22          1.1290     2.9300     0.4450 h1         1 SL0       0.081700
     43 H1           1.2350     3.6880    -1.6670 ho         1 SL0       0.412000
     44 H24          3.2780     0.8440    -1.8880 h1         1 SL0       0.109700
     45 H643         5.5470    -2.3810     0.0410 hc         1 SL0       0.068033
     46 H642         6.9700    -1.6030    -0.6870 hc         1 SL0       0.068033
     47 H641         6.2700    -0.9770     0.8090 hc         1 SL0       0.068033
     48 H25          1.4330    -1.0700    -0.3940 h1         1 SL0       0.058700
     49 H512         2.6910    -2.1300    -2.2380 hc         1 SL0       0.048367
     50 H513         0.9850    -2.0130    -2.6270 hc         1 SL0       0.048367
     51 H511         2.1350    -0.8840    -3.3620 hc         1 SL0       0.048367
     52 H21         -0.5150     1.9600    -1.2330 h2         1 SL0       0.092700
     53 H12          0.2170    -1.1160     2.3460 ha         1 SL0       0.148500
     54 H13          1.9010    -2.8750     2.5510 ha         1 SL0       0.145000
     55 H15          0.1680    -4.9250    -0.7970 ha         1 SL0       0.145000
     56 H16         -1.5240    -3.1650    -0.9980 ha         1 SL0       0.148500
     57 H8          -5.3720    -2.3290     0.2050 ha         1 SL0       0.172000
     58 H6          -7.2540     1.5280    -0.0600 ha         1 SL0       0.138000
     59 H221         2.6750    -4.8650     1.6630 ho         1 SL0       0.430000
     60 H231        -8.3460    -0.4640    -0.1410 ho         1 SL0       0.435000
     61 H241        -5.8970     3.2750     0.0410 ho         1 SL0       0.430000
@<TRIPOS>BOND
     1     1     2 1   
     2     1    38 1   
     3     1    39 1   
     4     1    40 1   
     5     2     3 2   
     6     2     4 1   
     7     4     5 1   
     8     5     6 1   
     9     5     8 1   
    10     5    41 1   
    11     6     7 1   
    12     6    16 1   
    13     6    42 1   
    14     7    43 1   
    15     8     9 1   
    16     8    13 1   
    17     8    44 1   
    18     9    10 1   
    19    10    11 2   
    20    10    12 1   
    21    12    45 1   
    22    12    46 1   
    23    12    47 1   
    24    13    14 1   
    25    13    15 1   
    26    13    48 1   
    27    14    49 1   
    28    14    50 1   
    29    14    51 1   
    30    15    16 1   
    31    16    17 1   
    32    16    52 1   
    33    17    18 1   
    34    18    19 1   
    35    18    21 2   
    36    19    20 2   
    37    19    36 1   
    38    21    22 1   
    39    21    29 1   
    40    22    23 ar  
    41    22    28 ar  
    42    23    24 ar  
    43    23    53 1   
    44    24    25 ar  
    45    24    54 1   
    46    25    26 1   
    47    25    27 ar  
    48    26    59 1   
    49    27    28 ar  
    50    27    55 1   
    51    28    56 1   
    52    29    30 1   
    53    30    31 ar  
    54    30    36 ar  
    55    31    32 ar  
    56    31    57 1   
    57    32    33 1   
    58    32    34 ar  
    59    33    60 1   
    60    34    35 ar  
    61    34    58 1   
    62    35    36 ar  
    63    35    37 1   
    64    37    61 1   
@<TRIPOS>SUBSTRUCTURE
     1 SL0         1 TEMP              0 ****  ****    0 ROOT
