@<TRIPOS>MOLECULE
SL0
   61    64     1     0     0
SMALL
No Charge or Current Charge


@<TRIPOS>ATOM
      1 C1           5.9720     1.8460     1.7120 c3         1 SL0      -0.156100
      2 C2           4.4790     1.5750     1.6080 c          1 SL0       0.595100
      3 O1           3.7470     1.4220     2.5750 o          1 SL0      -0.487000
      4 O2           4.0820     1.4370     0.3070 os         1 SL0      -0.433100
      5 C3           2.6940     1.1820    -0.0240 c6         1 SL0       0.169300
      6 C4           1.7980     2.4380     0.2540 c6         1 SL0       0.131300
      7 O3           2.3160     3.5980    -0.4560 oh         1 SL0      -0.698000
      8 C5           2.5540     0.7370    -1.5160 c6         1 SL0       0.142300
      9 O4           3.2720    -0.5000    -1.7640 os         1 SL0      -0.459100
     10 C6           4.6090    -0.5000    -2.0650 c          1 SL0       0.602100
     11 O5           5.2680     0.5000    -2.3090 o          1 SL0      -0.470000
     12 C7           5.1390    -1.9170    -2.2260 c3         1 SL0      -0.157100
     13 C8           1.0500     0.5390    -1.8710 c6         1 SL0       0.168300
     14 C9           0.8220     0.2660    -3.3780 c3         1 SL0      -0.086100
     15 O6           0.2730     1.7150    -1.5430 os         1 SL0      -0.457000
     16 C10          0.3230     2.1010    -0.1480 c6         1 SL0       0.352300
     17 O7          -0.1710     1.0160     0.6670 os         1 SL0      -0.355100
     18 C11         -1.4590     0.5140     0.5650 cc         1 SL0      -0.094100
     19 C12         -2.5990     1.2250    -0.0920 c          1 SL0       0.594900
     20 O8          -2.5480     2.4070    -0.4110 o          1 SL0      -0.527100
     21 C13         -1.5520    -0.8080     0.9840 cd         1 SL0       0.189900
     22 C14         -0.5590    -1.6390     1.7300 ca         1 SL0      -0.109800
     23 C15          0.4960    -1.0820     2.4970 ca         1 SL0      -0.026500
     24 C16          1.4120    -1.9050     3.1750 ca         1 SL0      -0.188000
     25 C17          1.2880    -3.2980     3.1110 ca         1 SL0       0.161100
     26 O9           2.1720    -4.1020     3.7660 oh         1 SL0      -0.529100
     27 C18          0.2420    -3.8690     2.3790 ca         1 SL0      -0.188000
     28 C19         -0.6770    -3.0500     1.7000 ca         1 SL0      -0.026500
     29 O10         -2.7530    -1.4460     0.8380 os         1 SL0      -0.206200
     30 C20         -3.8370    -0.9220     0.1850 ca         1 SL0       0.230100
     31 C21         -4.9560    -1.7460     0.0270 ca         1 SL0      -0.230000
     32 C22         -6.0900    -1.2680    -0.6230 ca         1 SL0       0.243100
     33 O11         -7.1730    -2.0700    -0.7760 oh         1 SL0      -0.519100
     34 C23         -6.1110     0.0350    -1.1190 ca         1 SL0      -0.363000
     35 C24         -4.9940     0.8660    -0.9620 ca         1 SL0       0.270100
     36 C25         -3.8360     0.3940    -0.3010 ca         1 SL0      -0.301600
     37 O12         -5.0770     2.1210    -1.4740 oh         1 SL0      -0.486100
     38 H733         6.2030     2.7590     1.1520 hc         1 SL0       0.070700
     39 H731         6.3200     1.9020     2.7490 hc         1 SL0       0.070700
     40 H732         6.5110     1.0820     1.1410 hc         1 SL0       0.070700
     41 H23          2.3410     0.3490     0.6020 h1         1 SL0       0.088700
     42 H22          1.8010     2.6310     1.3370 h1         1 SL0       0.081700
     43 H1           1.8430     4.3940    -0.1190 ho         1 SL0       0.511000
     44 H24          2.9510     1.5310    -2.1660 h1         1 SL0       0.109700
     45 H643         4.4810    -2.4660    -2.9090 hc         1 SL0       0.068033
     46 H642         6.1820    -1.9420    -2.5600 hc         1 SL0       0.068033
     47 H641         4.9960    -2.4560    -1.2830 hc         1 SL0       0.068033
     48 H25          0.6560    -0.3200    -1.3080 h1         1 SL0       0.058700
     49 H512         1.3270    -0.6540    -3.6940 hc         1 SL0       0.048367
     50 H513        -0.2460     0.1470    -3.5960 hc         1 SL0       0.048367
     51 H511         1.2040     1.0880    -3.9940 hc         1 SL0       0.048367
     52 H21         -0.2910     2.9980     0.0150 h2         1 SL0       0.092700
     53 H12          0.6030    -0.0080     2.6180 ha         1 SL0       0.130500
     54 H13          2.2100    -1.4490     3.7560 ha         1 SL0       0.127000
     55 H15          0.1410    -4.9500     2.3330 ha         1 SL0       0.127000
     56 H16         -1.4700    -3.5290     1.1290 ha         1 SL0       0.130500
     57 H8          -4.9400    -2.7610     0.4130 ha         1 SL0       0.154000
     58 H6          -6.9980     0.4040    -1.6290 ha         1 SL0       0.120000
     59 H221         2.8250    -3.5330     4.2260 ho         1 SL0       0.469000
     60 H231        -7.8590    -1.5570    -1.2520 ho         1 SL0       0.474000
     61 H241        -5.9620     2.2190    -1.8790 ho         1 SL0       0.469000
@<TRIPOS>BOND
     1     1     2 1   
     2     1    38 1   
     3     1    39 1   
     4     1    40 1   
     5     2     3 2   
     6     2     4 1   
     7     4     5 1   
     8     5     6 1   
     9     5     8 1   
    10     5    41 1   
    11     6     7 1   
    12     6    16 1   
    13     6    42 1   
    14     7    43 1   
    15     8     9 1   
    16     8    13 1   
    17     8    44 1   
    18     9    10 1   
    19    10    11 2   
    20    10    12 1   
    21    12    45 1   
    22    12    46 1   
    23    12    47 1   
    24    13    14 1   
    25    13    15 1   
    26    13    48 1   
    27    14    49 1   
    28    14    50 1   
    29    14    51 1   
    30    15    16 1   
    31    16    17 1   
    32    16    52 1   
    33    17    18 1   
    34    18    19 1   
    35    18    21 2   
    36    19    20 2   
    37    19    36 1   
    38    21    22 1   
    39    21    29 1   
    40    22    23 ar  
    41    22    28 ar  
    42    23    24 ar  
    43    23    53 1   
    44    24    25 ar  
    45    24    54 1   
    46    25    26 1   
    47    25    27 ar  
    48    26    59 1   
    49    27    28 ar  
    50    27    55 1   
    51    28    56 1   
    52    29    30 1   
    53    30    31 ar  
    54    30    36 ar  
    55    31    32 ar  
    56    31    57 1   
    57    32    33 1   
    58    32    34 ar  
    59    33    60 1   
    60    34    35 ar  
    61    34    58 1   
    62    35    36 ar  
    63    35    37 1   
    64    37    61 1   
@<TRIPOS>SUBSTRUCTURE
     1 SL0         1 TEMP              0 ****  ****    0 ROOT
