@<TRIPOS>MOLECULE
SL4
   52    55     1     0     0
SMALL
No Charge or Current Charge


@<TRIPOS>ATOM
      1 C4          32.0140     8.6140     7.9130 ce         1 SL4      -0.358800
      2 C5          32.2610     7.7350     8.8810 c2         1 SL4       0.197900
      3 C6          31.4580     8.2100    11.3400 c3         1 SL4      -0.042000
      4 C11         36.7800    10.2520    12.5830 ca         1 SL4       0.212000
      5 C8          34.4040    10.7930    11.1710 ca         1 SL4      -0.142300
      6 C9          35.5040    10.2100    10.5120 ca         1 SL4      -0.056000
      7 C10         36.6870     9.9390    11.2180 ca         1 SL4      -0.153000
      8 C12         35.6910    10.8450    13.2500 ca         1 SL4      -0.055000
      9 C13         34.5060    11.1180    12.5390 ca         1 SL4      -0.040000
     10 N2          32.5600     9.8950     9.7110 n          1 SL4      -0.414800
     11 C3          32.1710     9.9720     8.3790 c          1 SL4       0.585200
     12 C1          32.5380     8.4810    10.2160 c5         1 SL4       0.094900
     13 O14         32.3350     6.4140     8.6680 oh         1 SL4      -0.465100
     14 O15         32.0390    10.9900     7.7190 o          1 SL4      -0.534000
     15 C16         31.7350     8.2740     6.5390 ce         1 SL4       0.689200
     16 C18         31.3700     6.6950    11.6810 c3         1 SL4      -0.095767
     17 C19         31.8340     8.9380    12.6600 c3         1 SL4      -0.095767
     18 C20         30.0460     8.6900    10.8990 c3         1 SL4      -0.095767
     19 S21         30.6850     7.3340     4.5470 sy         1 SL4       1.159100
     20 N22         30.7190     7.5490     6.1450 nf         1 SL4      -0.647300
     21 C23         32.1690     8.2380     4.2180 ca         1 SL4      -0.263500
     22 C24         32.6470     8.7010     5.4300 ca         1 SL4      -0.163900
     23 C25         33.8500     9.4280     5.4860 ca         1 SL4      -0.040000
     24 C26         34.5340     9.6850     4.2770 ca         1 SL4      -0.081000
     25 C27         34.0240     9.2130     3.0430 ca         1 SL4      -0.099000
     26 C28         32.8250     8.4720     3.0020 ca         1 SL4       0.010000
     27 O29         30.9340     5.9240     4.2240 o          1 SL4      -0.521500
     28 O30         29.5640     8.0780     3.9650 o          1 SL4      -0.521500
     29 C31         35.7790    11.1710    14.6450 cg         1 SL4       0.321000
     30 N32         35.8380    11.4410    15.7790 n1         1 SL4      -0.424000
     31 H1          33.3410    11.8620     9.6640 h1         1 SL4       0.079200
     32 H2          32.3550    11.4950    11.0700 h1         1 SL4       0.079200
     33 H3          35.4400     9.9640     9.4530 ha         1 SL4       0.127000
     34 H4          37.5340     9.4850    10.7100 ha         1 SL4       0.144000
     35 H5          33.6630    11.5790    13.0520 ha         1 SL4       0.132000
     36 H6          33.5260     8.2060    10.6100 h1         1 SL4       0.074700
     37 H7          32.6410     5.9920     9.4970 ho         1 SL4       0.485000
     38 H8          32.3610     6.2840    11.9110 hc         1 SL4       0.045589
     39 H9          30.7290     6.5250    12.5550 hc         1 SL4       0.045589
     40 H10         30.9320     6.1180    10.8590 hc         1 SL4       0.045589
     41 H11         32.8620     8.7020    12.9600 hc         1 SL4       0.045589
     42 H12         31.7400    10.0230    12.5640 hc         1 SL4       0.045589
     43 H13         31.1690     8.6390    13.4800 hc         1 SL4       0.045589
     44 H14         29.3020     8.4820    11.6780 hc         1 SL4       0.045589
     45 H15         30.0340     9.7700    10.7090 hc         1 SL4       0.045589
     46 H16         29.7210     8.1820     9.9830 hc         1 SL4       0.045589
     47 H17         34.2530     9.7850     6.4310 ha         1 SL4       0.135000
     48 H18         35.4640    10.2490     4.2950 ha         1 SL4       0.122000
     49 H19         34.5640     9.4160     2.1210 ha         1 SL4       0.122000
     50 H20         32.4290     8.0940     2.0610 ha         1 SL4       0.134000
     51 C7          33.1190    11.0800    10.4010 c3         1 SL4       0.154300
     52 F17         37.9300     9.9790    13.2430 f          1 SL4      -0.159000
@<TRIPOS>BOND
     1     1     2 2   
     2     1    11 1   
     3     1    15 1   
     4     2    12 1   
     5     2    13 1   
     6     3    12 1   
     7     3    16 1   
     8     3    17 1   
     9     3    18 1   
    10     4     7 ar  
    11     4     8 ar  
    12     4    52 1   
    13     5     6 ar  
    14     5     9 ar  
    15     5    51 1   
    16     6     7 ar  
    17     6    33 1   
    18     7    34 1   
    19     8     9 ar  
    20     8    29 1   
    21     9    35 1   
    22    10    11 1   
    23    10    12 1   
    24    10    51 1   
    25    11    14 2   
    26    12    36 1   
    27    13    37 1   
    28    15    20 2   
    29    15    22 1   
    30    16    38 1   
    31    16    39 1   
    32    16    40 1   
    33    17    41 1   
    34    17    42 1   
    35    17    43 1   
    36    18    44 1   
    37    18    45 1   
    38    18    46 1   
    39    19    20 1   
    40    19    21 1   
    41    19    27 2   
    42    19    28 2   
    43    21    22 ar  
    44    21    26 ar  
    45    22    23 ar  
    46    23    24 ar  
    47    23    47 1   
    48    24    25 ar  
    49    24    48 1   
    50    25    26 ar  
    51    25    49 1   
    52    26    50 1   
    53    29    30 3   
    54    31    51 1   
    55    32    51 1   
@<TRIPOS>SUBSTRUCTURE
     1 SL4         1 TEMP              0 ****  ****    0 ROOT
