@<TRIPOS>MOLECULE
SL4
   52    55     1     0     0
SMALL
abcg2


@<TRIPOS>ATOM
      1 C4          32.2090     8.6460     8.0490 ce         1 SL4      -0.358800
      2 C5          32.2840     7.8170     9.1230 c2         1 SL4       0.197900
      3 C6          31.1150     8.3380    11.3470 c3         1 SL4      -0.042000
      4 C11         36.9970     9.9670    12.0600 ca         1 SL4       0.212000
      5 C8          34.4690    10.6770    11.1590 ca         1 SL4      -0.142300
      6 C9          35.4390    10.1950    10.2750 ca         1 SL4      -0.056000
      7 C10         36.7040     9.8370    10.7170 ca         1 SL4      -0.153000
      8 C12         36.0580    10.4450    12.9710 ca         1 SL4      -0.055000
      9 C13         34.7840    10.7970    12.5030 ca         1 SL4      -0.040000
     10 N2          32.4630     9.9620     9.9170 n          1 SL4      -0.414800
     11 C3          32.3610    10.0290     8.5470 c          1 SL4       0.585200
     12 C1          32.3570     8.5920    10.4130 c5         1 SL4       0.094900
     13 O14         32.2920     6.4980     9.0590 oh         1 SL4      -0.465100
     14 O15         32.4040    11.0640     7.8930 o          1 SL4      -0.534000
     15 C16         32.0500     8.2340     6.6710 ce         1 SL4       0.689200
     16 C18         31.1400     6.8890    11.8580 c3         1 SL4      -0.095767
     17 C19         31.2020     9.2660    12.5660 c3         1 SL4      -0.095767
     18 C20         29.8090     8.6040    10.5930 c3         1 SL4      -0.095767
     19 S21         31.2640     6.9120     4.7500 sy         1 SL4       1.159100
     20 N22         31.2620     7.2380     6.3890 nf         1 SL4      -0.647300
     21 C23         32.4150     8.1920     4.3300 ca         1 SL4      -0.263500
     22 C24         32.7720     8.8360     5.5140 ca         1 SL4      -0.163900
     23 C25         33.7440     9.8270     5.4790 ca         1 SL4      -0.040000
     24 C26         34.3070    10.1640     4.2490 ca         1 SL4      -0.081000
     25 C27         33.9190     9.5220     3.0760 ca         1 SL4      -0.099000
     26 C28         32.9600     8.5070     3.1040 ca         1 SL4       0.010000
     27 O29         31.8320     5.6040     4.5230 o          1 SL4      -0.521500
     28 O30         29.9450     7.1660     4.2210 o          1 SL4      -0.521500
     29 C31         36.3870    10.5600    14.3510 cg         1 SL4       0.321000
     30 N32         36.6440    10.6550    15.4710 n1         1 SL4      -0.424000
     31 H1          33.1630    11.8790     9.9550 h1         1 SL4       0.079200
     32 H2          32.4730    11.3770    11.4860 h1         1 SL4       0.079200
     33 H3          35.2020    10.0890     9.2240 ha         1 SL4       0.127000
     34 H4          37.4590     9.4630    10.0390 ha         1 SL4       0.144000
     35 H5          34.0470    11.1570    13.2090 ha         1 SL4       0.132000
     36 H6          33.2590     8.3150    10.9680 h1         1 SL4       0.074700
     37 H7          32.5180     6.0970     9.9120 ho         1 SL4       0.485000
     38 H8          32.1200     6.6250    12.2660 hc         1 SL4       0.045589
     39 H9          30.4080     6.7780    12.6590 hc         1 SL4       0.045589
     40 H10         30.8680     6.1680    11.0860 hc         1 SL4       0.045589
     41 H11         32.1750     9.1960    13.0560 hc         1 SL4       0.045589
     42 H12         31.0160    10.3040    12.2980 hc         1 SL4       0.045589
     43 H13         30.4380     8.9740    13.2880 hc         1 SL4       0.045589
     44 H14         28.9650     8.4990    11.2770 hc         1 SL4       0.045589
     45 H15         29.7900     9.6170    10.1870 hc         1 SL4       0.045589
     46 H16         29.6650     7.9000     9.7730 hc         1 SL4       0.045589
     47 H17         34.0490    10.3350     6.3800 ha         1 SL4       0.135000
     48 H18         35.0630    10.9380     4.2070 ha         1 SL4       0.122000
     49 H19         34.3700     9.8030     2.1340 ha         1 SL4       0.122000
     50 H20         32.6660     7.9850     2.2030 ha         1 SL4       0.134000
     51 C7          33.0930    11.0490    10.6570 c3         1 SL4       0.154300
     52 F17         38.2170     9.6210    12.5100 f          1 SL4      -0.159000
@<TRIPOS>BOND
     1     1     2 2   
     2     1    11 1   
     3     1    15 1   
     4     2    12 1   
     5     2    13 1   
     6     3    12 1   
     7     3    16 1   
     8     3    17 1   
     9     3    18 1   
    10     4     7 ar  
    11     4     8 ar  
    12     4    52 1   
    13     5     6 ar  
    14     5     9 ar  
    15     5    51 1   
    16     6     7 ar  
    17     6    33 1   
    18     7    34 1   
    19     8     9 ar  
    20     8    29 1   
    21     9    35 1   
    22    10    11 1   
    23    10    12 1   
    24    10    51 1   
    25    11    14 2   
    26    12    36 1   
    27    13    37 1   
    28    15    20 2   
    29    15    22 1   
    30    16    38 1   
    31    16    39 1   
    32    16    40 1   
    33    17    41 1   
    34    17    42 1   
    35    17    43 1   
    36    18    44 1   
    37    18    45 1   
    38    18    46 1   
    39    19    20 1   
    40    19    21 1   
    41    19    27 2   
    42    19    28 2   
    43    21    22 ar  
    44    21    26 ar  
    45    22    23 ar  
    46    23    24 ar  
    47    23    47 1   
    48    24    25 ar  
    49    24    48 1   
    50    25    26 ar  
    51    25    49 1   
    52    26    50 1   
    53    29    30 3   
    54    31    51 1   
    55    32    51 1   
@<TRIPOS>SUBSTRUCTURE
     1 SL4         1 TEMP              0 ****  ****    0 ROOT
