@<TRIPOS>MOLECULE
SL5
   28    28     1     0     0
SMALL
bcc


@<TRIPOS>ATOM
      1 C           -2.4400     1.0780    -0.6250 c          1 SL5       0.930600
      2 N           -0.8060     0.7630     1.2350 n7         1 SL5      -0.797200
      3 O           -3.1840     1.5990     0.2300 o          1 SL5      -0.834300
      4 C5          -0.2000    -0.4010     1.8250 c5         1 SL5       0.368300
      5 C6           1.3170    -0.3770     1.7670 c3         1 SL5       0.134400
      6 O7           1.7450    -0.2750     0.4400 os         1 SL5      -0.366600
      7 C8           3.1360    -0.1660     0.2970 c3         1 SL5       0.141400
      8 C9           3.4840    -0.0570    -1.1660 c3         1 SL5       0.142400
      9 CA          -1.1600     0.3900    -0.1220 c5         1 SL5      -0.003500
     10 CB          -1.3590    -1.1430    -0.0540 c5         1 SL5       0.132100
     11 O10          2.9650     1.1450    -1.6860 oh         1 SL5      -0.569800
     12 OG1         -0.6960    -1.5440     1.1370 os         1 SL5      -0.464600
     13 CG2         -0.8200    -1.8800    -1.2600 c3         1 SL5      -0.089100
     14 OXT         -2.6420     1.0080    -1.8520 o          1 SL5      -0.834300
     15 HN          -1.6730     0.9870     1.7130 hn         1 SL5       0.383800
     16 H5          -0.4760    -0.4680     2.8840 h2         1 SL5       0.037700
     17 H6           1.6680     0.4750     2.3680 h1         1 SL5       0.008700
     18 H6A          1.7140    -1.2860     2.2450 h1         1 SL5       0.008700
     19 H8           3.5220     0.7070     0.8440 h1         1 SL5       0.012700
     20 H8A          3.6500    -1.0480     0.7060 h1         1 SL5       0.012700
     21 H9A          4.5780    -0.1010    -1.2490 h1         1 SL5       0.013200
     22 H9B          3.0890    -0.9340    -1.6950 h1         1 SL5       0.013200
     23 HA          -0.3370     0.6140    -0.8070 h1         1 SL5       0.080700
     24 HB          -2.4270    -1.3750     0.0620 h1         1 SL5       0.049700
     25 HO10         3.1720     1.1770    -2.6240 ho         1 SL5       0.392000
     26 HG2          0.2470    -1.6910    -1.3780 hc         1 SL5       0.032367
     27 HG2A        -0.9790    -2.9570    -1.1850 hc         1 SL5       0.032367
     28 HG2B        -1.3320    -1.5280    -2.1560 hc         1 SL5       0.032367
@<TRIPOS>BOND
     1     1     3 1   
     2     1     9 1   
     3     1    14 1   
     4     2     4 1   
     5     2     9 1   
     6     2    15 1   
     7     4     5 1   
     8     4    12 1   
     9     4    16 1   
    10     5     6 1   
    11     5    17 1   
    12     5    18 1   
    13     6     7 1   
    14     7     8 1   
    15     7    19 1   
    16     7    20 1   
    17     8    11 1   
    18     8    21 1   
    19     8    22 1   
    20     9    10 1   
    21     9    23 1   
    22    10    12 1   
    23    10    13 1   
    24    10    24 1   
    25    11    25 1   
    26    13    26 1   
    27    13    27 1   
    28    13    28 1   
@<TRIPOS>SUBSTRUCTURE
     1 SL5         1 TEMP              0 ****  ****    0 ROOT
