@<TRIPOS>MOLECULE
SL5
   28    28     1     0     0
SMALL
No Charge or Current Charge


@<TRIPOS>ATOM
      1 C           -2.4690     1.1330    -0.6420 c          1 SL5       0.720000
      2 N           -1.0880     0.6460     1.5450 n7         1 SL5      -0.852400
      3 O           -3.5580     1.1050    -0.0800 o          1 SL5      -0.729000
      4 C5          -0.2340    -0.4920     1.9520 c5         1 SL5       0.391500
      5 C6           1.3180    -0.2350     1.8150 c3         1 SL5       0.157600
      6 O7           1.7750    -0.3260     0.4470 os         1 SL5      -0.413000
      7 C8           3.1890    -0.1180     0.2740 c3         1 SL5       0.164600
      8 C9           3.5440    -0.2450    -1.2330 c3         1 SL5       0.165600
      9 CA          -1.2240     0.4640     0.0560 c5         1 SL5      -0.003500
     10 CB          -1.3640    -1.0740    -0.0620 c5         1 SL5       0.155300
     11 O10          3.0040     0.8450    -2.0030 oh         1 SL5      -0.692000
     12 OG1         -0.6930    -1.5870     1.1170 os         1 SL5      -0.511000
     13 CG2         -0.7660    -1.7020    -1.3390 c3         1 SL5      -0.089100
     14 OXT         -2.3060     1.7330    -1.6960 o          1 SL5      -0.729000
     15 HN          -2.0140     0.4740     1.9530 hn         1 SL5       0.439000
     16 H5          -0.4260    -0.7320     3.0060 h2         1 SL5       0.037700
     17 H6           1.5540     0.7520     2.2340 h1         1 SL5       0.008700
     18 H6A          1.8390    -0.9830     2.4270 h1         1 SL5       0.008700
     19 H8           3.4870     0.8740     0.6400 h1         1 SL5       0.012700
     20 H8A          3.7540    -0.8730     0.8360 h1         1 SL5       0.012700
     21 H9A          4.6380    -0.2610    -1.3310 h1         1 SL5       0.013200
     22 H9B          3.1660    -1.2050    -1.6100 h1         1 SL5       0.013200
     23 HA          -0.3230     0.8140    -0.4660 h1         1 SL5       0.080700
     24 HB          -2.4200    -1.3720     0.0070 h1         1 SL5       0.049700
     25 HO10         3.2290     0.6670    -2.9450 ho         1 SL5       0.491000
     26 HG2          0.2950    -1.4560    -1.4540 hc         1 SL5       0.032367
     27 HG2A        -0.8600    -2.7940    -1.3190 hc         1 SL5       0.032367
     28 HG2B        -1.2910    -1.3400    -2.2310 hc         1 SL5       0.032367
@<TRIPOS>BOND
     1     1     3 1   
     2     1     9 1   
     3     1    14 1   
     4     2     4 1   
     5     2     9 1   
     6     2    15 1   
     7     4     5 1   
     8     4    12 1   
     9     4    16 1   
    10     5     6 1   
    11     5    17 1   
    12     5    18 1   
    13     6     7 1   
    14     7     8 1   
    15     7    19 1   
    16     7    20 1   
    17     8    11 1   
    18     8    21 1   
    19     8    22 1   
    20     9    10 1   
    21     9    23 1   
    22    10    12 1   
    23    10    13 1   
    24    10    24 1   
    25    11    25 1   
    26    13    26 1   
    27    13    27 1   
    28    13    28 1   
@<TRIPOS>SUBSTRUCTURE
     1 SL5         1 TEMP              0 ****  ****    0 ROOT
