@<TRIPOS>MOLECULE
SL6
   58    60     1     0     0
SMALL
No Charge or Current Charge


@<TRIPOS>ATOM
      1 Cl2          5.3630     4.6400    -0.5050 cl         1 SL6      -0.235000
      2 C19          4.0740     3.5780     0.0450 ca         1 SL6       0.115000
      3 C18          2.7590     3.7810    -0.4000 ca         1 SL6      -0.107500
      4 C17          1.7280     2.9330     0.0420 ca         1 SL6      -0.092000
      5 C20          4.3570     2.5360     0.9410 ca         1 SL6      -0.107500
      6 C21          3.3250     1.6890     1.3820 ca         1 SL6      -0.092000
      7 C16          2.0030     1.8620     0.9190 ca         1 SL6      -0.061300
      8 C15          0.8770     0.9510     1.4330 c3         1 SL6      -0.020100
      9 C11          0.3760    -0.2150     0.4780 c6         1 SL6      -0.136000
     10 C10         -0.1540     0.3340    -0.8970 c6         1 SL6      -0.062900
     11 C9          -1.4400     1.1910    -0.7590 c6         1 SL6       0.168300
     12 C14          1.5140    -1.2830     0.2560 c          1 SL6       0.595300
     13 O27          2.5940    -1.1870     0.8220 o          1 SL6      -0.567100
     14 C22          1.2250    -2.4430    -0.6590 ce         1 SL6      -0.465200
     15 C23          2.0550    -3.4740    -1.0250 cf         1 SL6       0.092900
     16 O28          3.3210    -3.5420    -0.5600 oh         1 SL6      -0.527100
     17 C24          1.6210    -4.6040    -1.9710 c          1 SL6       0.674200
     18 O26          2.4560    -5.4670    -2.2210 o          1 SL6      -0.689500
     19 O25          0.4880    -4.6130    -2.4360 o          1 SL6      -0.689500
     20 C12         -0.8540    -0.9480     1.1290 c6         1 SL6      -0.062900
     21 C13         -2.1390    -0.0830     1.2100 c6         1 SL6       0.168300
     22 N8          -2.5450     0.4250    -0.1280 n3         1 SL6      -0.720600
     23 C7          -3.8120     1.2010    -0.1130 c3         1 SL6       0.176800
     24 C2          -5.0970     0.4310     0.3300 c6         1 SL6      -0.059700
     25 C3          -6.3410     1.3620     0.2820 c6         1 SL6      -0.070400
     26 C4          -7.6270     0.6200     0.7260 c6         1 SL6      -0.073900
     27 C5          -7.8630    -0.6490    -0.1290 c6         1 SL6      -0.074400
     28 C6          -6.6320    -1.5860    -0.0880 c6         1 SL6      -0.073900
     29 C1          -5.3450    -0.8440    -0.5290 c6         1 SL6      -0.070400
     30 H18          2.5380     4.5980    -1.0820 ha         1 SL6       0.121500
     31 H20          5.3730     2.3880     1.2970 ha         1 SL6       0.121500
     32 H17          0.7140     3.1210    -0.2980 ha         1 SL6       0.125500
     33 H21          3.5580     0.8950     2.0880 ha         1 SL6       0.125500
     34 H151         1.1830     0.5150     2.3930 hc         1 SL6       0.047700
     35 H152         0.0370     1.6020     1.6990 hc         1 SL6       0.047700
     36 H101         0.6280     0.9140    -1.4030 hc         1 SL6       0.059950
     37 H102        -0.3910    -0.4820    -1.5880 hc         1 SL6       0.059950
     38 H121        -1.1100    -1.8570     0.5720 hc         1 SL6       0.059950
     39 H122        -0.5890    -1.2910     2.1380 hc         1 SL6       0.059950
     40 H91C        -1.2310     2.0960    -0.1710 h1         1 SL6       0.020450
     41 H92C        -1.7420     1.5260    -1.7620 h1         1 SL6       0.020450
     42 H22          0.2250    -2.4680    -1.0790 ha         1 SL6       0.195000
     43 H28          3.6960    -4.3590    -0.9650 ho         1 SL6       0.496000
     44 H131        -2.9320    -0.7100     1.6390 h1         1 SL6       0.020450
     45 H132        -1.9860     0.7530     1.9070 h1         1 SL6       0.020450
     46 H71C        -3.6960     2.0740     0.5450 h1         1 SL6       0.021700
     47 H72C        -4.0030     1.5900    -1.1220 h1         1 SL6       0.021700
     48 H2          -4.9490     0.1290     1.3750 hc         1 SL6       0.046700
     49 H31C        -6.1810     2.2340     0.9310 hc         1 SL6       0.042700
     50 H32C        -6.4760     1.7530    -0.7360 hc         1 SL6       0.042700
     51 H11C        -5.4240    -0.5690    -1.5900 hc         1 SL6       0.042700
     52 H12C        -4.4900    -1.5280    -0.4480 hc         1 SL6       0.042700
     53 H41C        -7.5470     0.3420     1.7860 hc         1 SL6       0.034950
     54 H42C        -8.4920     1.2910     0.6430 hc         1 SL6       0.034950
     55 H51C        -8.7520    -1.1830     0.2340 hc         1 SL6       0.032200
     56 H52C        -8.0750    -0.3610    -1.1680 hc         1 SL6       0.032200
     57 H61C        -6.5010    -1.9800     0.9300 hc         1 SL6       0.034950
     58 H62C        -6.8030    -2.4540    -0.7390 hc         1 SL6       0.034950
@<TRIPOS>BOND
     1     1     2 1   
     2     2     3 ar  
     3     2     5 ar  
     4     3     4 ar  
     5     3    30 1   
     6     4     7 ar  
     7     4    32 1   
     8     5     6 ar  
     9     5    31 1   
    10     6     7 ar  
    11     6    33 1   
    12     7     8 1   
    13     8     9 1   
    14     8    34 1   
    15     8    35 1   
    16     9    10 1   
    17     9    12 1   
    18     9    20 1   
    19    10    11 1   
    20    10    36 1   
    21    10    37 1   
    22    11    22 1   
    23    11    40 1   
    24    11    41 1   
    25    12    13 2   
    26    12    14 1   
    27    14    15 2   
    28    14    42 1   
    29    15    16 1   
    30    15    17 1   
    31    16    43 1   
    32    17    18 1   
    33    17    19 1   
    34    20    21 1   
    35    20    38 1   
    36    20    39 1   
    37    21    22 1   
    38    21    44 1   
    39    21    45 1   
    40    22    23 1   
    41    23    24 1   
    42    23    46 1   
    43    23    47 1   
    44    24    25 1   
    45    24    29 1   
    46    24    48 1   
    47    25    26 1   
    48    25    49 1   
    49    25    50 1   
    50    26    27 1   
    51    26    53 1   
    52    26    54 1   
    53    27    28 1   
    54    27    55 1   
    55    27    56 1   
    56    28    29 1   
    57    28    57 1   
    58    28    58 1   
    59    29    51 1   
    60    29    52 1   
@<TRIPOS>SUBSTRUCTURE
     1 SL6         1 TEMP              0 ****  ****    0 ROOT
