@<TRIPOS>MOLECULE
SL6
   58    60     1     0     0
SMALL
bcc


@<TRIPOS>ATOM
      1 CL2          5.6300     3.7600    -0.2050 cl         1 SL6      -0.143400
      2 C19          4.2170     2.8300     0.1850 ca         1 SL6       0.023400
      3 C18          2.9680     3.4260     0.1200 ca         1 SL6      -0.125500
      4 C17          1.8460     2.6730     0.4350 ca         1 SL6      -0.110000
      5 C20          4.3550     1.5060     0.5680 ca         1 SL6      -0.125500
      6 C21          3.2190     0.7710     0.8760 ca         1 SL6      -0.110000
      7 C16          1.9460     1.3330     0.8060 ca         1 SL6      -0.061300
      8 C15          0.7210     0.5200     1.1210 c3         1 SL6      -0.020100
      9 C11          0.0600    -0.1700    -0.1030 c6         1 SL6      -0.136000
     10 C10         -0.5190     0.8480    -1.0890 c6         1 SL6      -0.062900
     11 C9          -1.7370     1.5710    -0.5350 c6         1 SL6       0.168300
     12 C14          1.1160    -1.0420    -0.7960 c          1 SL6       0.595300
     13 O27          1.4730    -0.7960    -1.9360 o          1 SL6      -0.567100
     14 C22          1.6500    -2.1540    -0.0250 ce         1 SL6      -0.415200
     15 C23          2.5960    -3.0180    -0.4500 cf         1 SL6       0.092900
     16 O28          3.1760    -2.9900    -1.6330 oh         1 SL6      -0.488100
     17 C24          3.1250    -4.1700     0.4210 c          1 SL6       0.884800
     18 O26          4.0040    -4.8350    -0.1730 o          1 SL6      -0.794800
     19 O25          2.6650    -4.3250     1.5540 o          1 SL6      -0.794800
     20 C12         -1.0970    -1.0670     0.3770 c6         1 SL6      -0.062900
     21 C13         -2.3030    -0.2740     0.8630 c6         1 SL6       0.168300
     22 N8          -2.7790     0.6390    -0.1550 n3         1 SL6      -0.720600
     23 C7          -3.9950     1.3290     0.2280 c3         1 SL6       0.176800
     24 C2          -5.2250     0.4320     0.3410 c6         1 SL6      -0.059700
     25 C3          -6.4550     1.2800     0.6690 c6         1 SL6      -0.070400
     26 C4          -7.7190     0.4320     0.7750 c6         1 SL6      -0.073900
     27 C5          -7.9470    -0.3810    -0.4950 c6         1 SL6      -0.074400
     28 C6          -6.7260    -1.2320    -0.8260 c6         1 SL6      -0.073900
     29 C1          -5.4650    -0.3790    -0.9310 c6         1 SL6      -0.070400
     30 H18          2.8650     4.4650    -0.1640 ha         1 SL6       0.139500
     31 H20          5.3330     1.0500     0.6330 ha         1 SL6       0.139500
     32 H17          0.8750     3.1510     0.3940 ha         1 SL6       0.143500
     33 H21          3.3360    -0.2610     1.1810 ha         1 SL6       0.143500
     34 H151         0.9710    -0.2450     1.8600 hc         1 SL6       0.047700
     35 H152        -0.0190     1.1610     1.6030 hc         1 SL6       0.047700
     36 H101         0.2320     1.5820    -1.3840 hc         1 SL6       0.059950
     37 H102        -0.8210     0.3280    -2.0010 hc         1 SL6       0.059950
     38 H121        -1.4180    -1.7070    -0.4500 hc         1 SL6       0.059950
     39 H122        -0.7710    -1.7280     1.1830 hc         1 SL6       0.059950
     40 H91C        -1.4530     2.2250     0.3090 h1         1 SL6       0.020450
     41 H92C        -2.1320     2.2340    -1.3090 h1         1 SL6       0.020450
     42 H22          1.2860    -2.3210     0.9780 ha         1 SL6       0.145000
     43 H28          3.7980    -3.7560    -1.5790 ho         1 SL6       0.457000
     44 H131        -3.0930    -0.9850     1.1100 h1         1 SL6       0.020450
     45 H132        -2.0620     0.2550     1.8030 h1         1 SL6       0.020450
     46 H71C        -3.8660     1.8850     1.1750 h1         1 SL6       0.021700
     47 H72C        -4.1980     2.0820    -0.5420 h1         1 SL6       0.021700
     48 H2          -5.0880    -0.2730     1.1710 hc         1 SL6       0.046700
     49 H31C        -6.2930     1.8340     1.5980 hc         1 SL6       0.042700
     50 H32C        -6.5900     2.0300    -0.1210 hc         1 SL6       0.042700
     51 H11C        -5.5630     0.3130    -1.7770 hc         1 SL6       0.042700
     52 H12C        -4.5970    -1.0060    -1.1450 hc         1 SL6       0.042700
     53 H41C        -7.6270    -0.2480     1.6290 hc         1 SL6       0.034950
     54 H42C        -8.5830     1.0700     0.9780 hc         1 SL6       0.034950
     55 H51C        -8.8340    -1.0120    -0.3890 hc         1 SL6       0.032200
     56 H52C        -8.1470     0.3010    -1.3280 hc         1 SL6       0.032200
     57 H61C        -6.5860    -1.9840    -0.0420 hc         1 SL6       0.034950
     58 H62C        -6.8860    -1.7810    -1.7580 hc         1 SL6       0.034950
@<TRIPOS>BOND
     1     1     2 1   
     2     2     3 ar  
     3     2     5 ar  
     4     3     4 ar  
     5     3    30 1   
     6     4     7 ar  
     7     4    32 1   
     8     5     6 ar  
     9     5    31 1   
    10     6     7 ar  
    11     6    33 1   
    12     7     8 1   
    13     8     9 1   
    14     8    34 1   
    15     8    35 1   
    16     9    10 1   
    17     9    12 1   
    18     9    20 1   
    19    10    11 1   
    20    10    36 1   
    21    10    37 1   
    22    11    22 1   
    23    11    40 1   
    24    11    41 1   
    25    12    13 2   
    26    12    14 1   
    27    14    15 2   
    28    14    42 1   
    29    15    16 1   
    30    15    17 1   
    31    16    43 1   
    32    17    18 1   
    33    17    19 1   
    34    20    21 1   
    35    20    38 1   
    36    20    39 1   
    37    21    22 1   
    38    21    44 1   
    39    21    45 1   
    40    22    23 1   
    41    23    24 1   
    42    23    46 1   
    43    23    47 1   
    44    24    25 1   
    45    24    29 1   
    46    24    48 1   
    47    25    26 1   
    48    25    49 1   
    49    25    50 1   
    50    26    27 1   
    51    26    53 1   
    52    26    54 1   
    53    27    28 1   
    54    27    55 1   
    55    27    56 1   
    56    28    29 1   
    57    28    57 1   
    58    28    58 1   
    59    29    51 1   
    60    29    52 1   
@<TRIPOS>SUBSTRUCTURE
     1 SL6         1 TEMP              0 ****  ****    0 ROOT
