@<TRIPOS>MOLECULE
SL7
   46    49     1     0     0
SMALL
No Charge or Current Charge


@<TRIPOS>ATOM
      1 C1           5.3730    30.1390    32.8470 c3         1 SL7       0.212100
      2 C2           3.1300    30.4960    31.7980 cc         1 SL7       0.820900
      3 C3           2.7240    31.7910    30.2730 cd         1 SL7       0.618500
      4 C7           2.8230    34.7510    27.1550 ca         1 SL7      -0.007000
      5 C8           4.0210    34.4110    27.8160 ca         1 SL7      -0.140300
      6 C9           5.3350    35.1070    27.4400 c3         1 SL7       0.274100
      7 C10          5.4240    34.4260    24.9530 ca         1 SL7       0.202000
      8 C11          5.5800    33.0410    25.1950 ca         1 SL7      -0.068000
      9 C12          5.5420    32.1630    24.0980 ca         1 SL7      -0.126000
     10 C13          5.3590    32.6060    22.8080 ca         1 SL7      -0.104000
     11 C14          5.6660    30.7370    24.0020 cc         1 SL7      -0.132300
     12 C15          5.8860    29.7570    25.0990 c          1 SL7       0.733200
     13 C16          5.2040    33.9760    22.5490 ca         1 SL7      -0.077000
     14 O2           5.9620    28.5750    24.7920 o          1 SL7      -0.706500
     15 O1           5.9880    30.1430    26.2540 o          1 SL7      -0.706500
     16 N5           5.5410    30.4400    22.6490 na         1 SL7       0.033500
     17 N4           5.3480    31.5830    21.8600 nc         1 SL7      -0.350400
     18 C17          5.2390    34.8830    23.6290 ca         1 SL7      -0.145000
     19 N3           5.4460    35.3680    25.9900 nu         1 SL7      -0.972200
     20 C6           1.6190    34.1210    27.5000 ca         1 SL7      -0.169000
     21 C5           1.5910    33.1520    28.5120 ca         1 SL7      -0.023000
     22 C18          3.9840    33.4430    28.8460 ca         1 SL7       0.228100
     23 O3           5.1240    33.1260    29.5210 oh         1 SL7      -0.547100
     24 C4           2.7730    32.8030    29.2000 ca         1 SL7      -0.293500
     25 O            1.5430    31.1780    30.5810 os         1 SL7      -0.085700
     26 N1           1.8400    30.2870    31.6360 nd         1 SL7      -0.480300
     27 N2           3.7450    31.4010    31.0050 nc         1 SL7      -0.835000
     28 N            3.9210    29.8630    32.7230 nh         1 SL7      -0.758300
     29 C            3.3380    28.8600    33.6420 c3         1 SL7       0.212100
     30 H1           5.8350    29.5290    33.6340 h1         1 SL7       0.042533
     31 H2           5.8880    29.9160    31.9030 h1         1 SL7       0.042533
     32 H3           5.5430    31.1950    33.0950 h1         1 SL7       0.042533
     33 H4           2.8220    35.5040    26.3690 ha         1 SL7       0.140000
     34 H5           6.1930    34.4980    27.7550 h1         1 SL7       0.045200
     35 H6           5.3960    36.0550    27.9910 h1         1 SL7       0.045200
     36 H7           5.7260    32.6700    26.2030 ha         1 SL7       0.143000
     37 H8           5.0600    34.3350    21.5330 ha         1 SL7       0.102000
     38 H10          5.5820    29.5110    22.2370 hn         1 SL7       0.376000
     39 H11          5.1190    35.9450    23.4330 ha         1 SL7       0.082000
     40 H12          5.3820    36.3460    25.7020 hn         1 SL7       0.450000
     41 H13          0.7020    34.3880    26.9800 ha         1 SL7       0.117000
     42 H14          0.6400    32.6810    28.7580 ha         1 SL7       0.120000
     43 H15          4.8490    32.4360    30.1860 ho         1 SL7       0.515000
     44 H16          4.0900    28.4600    34.3350 h1         1 SL7       0.042533
     45 H17          2.5340    29.3100    34.2390 h1         1 SL7       0.042533
     46 H18          2.9190    28.0190    33.0730 h1         1 SL7       0.042533
@<TRIPOS>BOND
     1     1    28 1   
     2     1    30 1   
     3     1    31 1   
     4     1    32 1   
     5     2    26 2   
     6     2    27 1   
     7     2    28 1   
     8     3    24 1   
     9     3    25 1   
    10     3    27 2   
    11     4     5 ar  
    12     4    20 ar  
    13     4    33 1   
    14     5     6 1   
    15     5    22 ar  
    16     6    19 1   
    17     6    34 1   
    18     6    35 1   
    19     7     8 ar  
    20     7    18 ar  
    21     7    19 1   
    22     8     9 ar  
    23     8    36 1   
    24     9    10 ar  
    25     9    11 2   
    26    10    13 ar  
    27    10    17 2   
    28    11    12 1   
    29    11    16 1   
    30    12    14 1   
    31    12    15 1   
    32    13    18 ar  
    33    13    37 1   
    34    16    17 1   
    35    16    38 1   
    36    18    39 1   
    37    19    40 1   
    38    20    21 ar  
    39    20    41 1   
    40    21    24 ar  
    41    21    42 1   
    42    22    23 1   
    43    22    24 ar  
    44    23    43 1   
    45    25    26 1   
    46    28    29 1   
    47    29    44 1   
    48    29    45 1   
    49    29    46 1   
@<TRIPOS>SUBSTRUCTURE
     1 SL7         1 TEMP              0 ****  ****    0 ROOT
