@<TRIPOS>MOLECULE
SL7
   46    49     1     0     0
SMALL
abcg2


@<TRIPOS>ATOM
      1 C1           5.3150    30.5520    33.4580 c3         1 SL7       0.212100
      2 C2           3.2490    30.5700    32.2060 cc         1 SL7       0.820900
      3 C3           2.7260    31.6660    30.5050 cd         1 SL7       0.618500
      4 C7           2.7620    34.0890    27.0620 ca         1 SL7      -0.007000
      5 C8           3.9370    33.9160    27.7690 ca         1 SL7      -0.140300
      6 C9           5.2330    34.5710    27.3450 c3         1 SL7       0.274100
      7 C10          5.3660    34.3940    24.9020 ca         1 SL7       0.202000
      8 C11          5.3130    33.0180    24.9100 ca         1 SL7      -0.068000
      9 C12          5.4940    32.3310    23.6880 ca         1 SL7      -0.126000
     10 C13          5.7240    33.0380    22.4780 ca         1 SL7      -0.104000
     11 C14          5.5150    30.9870    23.3070 cc         1 SL7      -0.132300
     12 C15          5.3490    29.6990    24.0580 c          1 SL7       0.733200
     13 C16          5.7740    34.4510    22.4850 ca         1 SL7      -0.077000
     14 O2           5.4610    28.6600    23.3790 o          1 SL7      -0.706500
     15 O1           5.1200    29.8050    25.2760 o          1 SL7      -0.706500
     16 N5           5.7440    31.0100    21.9810 na         1 SL7       0.033500
     17 N4           5.8750    32.2040    21.4410 nc         1 SL7      -0.350400
     18 C17          5.5940    35.0950    23.6710 ca         1 SL7      -0.145000
     19 N3           5.1750    35.1610    26.0360 nu         1 SL7      -0.972200
     20 C6           1.5680    33.4870    27.4590 ca         1 SL7      -0.169000
     21 C5           1.5480    32.6940    28.5830 ca         1 SL7      -0.023000
     22 C18          3.9190    33.1160    28.9210 ca         1 SL7       0.228100
     23 O3           5.0650    32.9820    29.5910 oh         1 SL7      -0.547100
     24 C4           2.7190    32.4990    29.3250 ca         1 SL7      -0.293500
     25 O            1.6300    31.0830    30.9380 os         1 SL7      -0.085700
     26 N1           1.9600    30.3620    32.0780 nd         1 SL7      -0.480300
     27 N2           3.7600    31.3960    31.2440 nc         1 SL7      -0.835000
     28 N            4.0070    30.0040    33.1620 nh         1 SL7      -0.758300
     29 C            3.3350    29.2690    34.2110 c3         1 SL7       0.212100
     30 H1           5.9080    29.7880    33.9560 h1         1 SL7       0.042533
     31 H2           5.8300    30.8320    32.5430 h1         1 SL7       0.042533
     32 H3           5.2640    31.4280    34.1110 h1         1 SL7       0.042533
     33 H4           2.7790    34.7080    26.1750 ha         1 SL7       0.140000
     34 H5           6.0510    33.8430    27.4160 h1         1 SL7       0.045200
     35 H6           5.4790    35.3640    28.0550 h1         1 SL7       0.045200
     36 H7           5.1330    32.4580    25.8160 ha         1 SL7       0.143000
     37 H8           5.9530    35.0080    21.5730 ha         1 SL7       0.102000
     38 H10          5.8190    30.1830    21.4070 hn         1 SL7       0.376000
     39 H11          5.6270    36.1790    23.6980 ha         1 SL7       0.082000
     40 H12          5.5380    36.0980    25.9820 hn         1 SL7       0.450000
     41 H13          0.6660    33.6380    26.8830 ha         1 SL7       0.117000
     42 H14          0.6260    32.2190    28.8930 ha         1 SL7       0.120000
     43 H15          4.9420    32.3800    30.3580 ho         1 SL7       0.515000
     44 H16          4.0700    28.6750    34.7500 h1         1 SL7       0.042533
     45 H17          2.8310    29.9270    34.9260 h1         1 SL7       0.042533
     46 H18          2.5970    28.5900    33.7890 h1         1 SL7       0.042533
@<TRIPOS>BOND
     1     1    28 1   
     2     1    30 1   
     3     1    31 1   
     4     1    32 1   
     5     2    26 2   
     6     2    27 1   
     7     2    28 1   
     8     3    24 1   
     9     3    25 1   
    10     3    27 2   
    11     4     5 ar  
    12     4    20 ar  
    13     4    33 1   
    14     5     6 1   
    15     5    22 ar  
    16     6    19 1   
    17     6    34 1   
    18     6    35 1   
    19     7     8 ar  
    20     7    18 ar  
    21     7    19 1   
    22     8     9 ar  
    23     8    36 1   
    24     9    10 ar  
    25     9    11 2   
    26    10    13 ar  
    27    10    17 2   
    28    11    12 1   
    29    11    16 1   
    30    12    14 1   
    31    12    15 1   
    32    13    18 ar  
    33    13    37 1   
    34    16    17 1   
    35    16    38 1   
    36    18    39 1   
    37    19    40 1   
    38    20    21 ar  
    39    20    41 1   
    40    21    24 ar  
    41    21    42 1   
    42    22    23 1   
    43    22    24 ar  
    44    23    43 1   
    45    25    26 1   
    46    28    29 1   
    47    29    44 1   
    48    29    45 1   
    49    29    46 1   
@<TRIPOS>SUBSTRUCTURE
     1 SL7         1 TEMP              0 ****  ****    0 ROOT
