@<TRIPOS>MOLECULE
SL8
   47    49     1     0     0
SMALL
No Charge or Current Charge


@<TRIPOS>ATOM
      1 C2          26.2640    79.5210    16.6330 ca         1 SL8      -0.068900
      2 C3          26.3530    78.1620    16.9820 ca         1 SL8       0.370900
      3 C44         29.2340    71.4860    22.8570 c3         1 SL8      -0.072100
      4 C11         28.9830    78.0880    19.6510 c          1 SL8       0.514600
      5 C15         29.6350    75.8390    20.7360 ca         1 SL8      -0.021000
      6 C16         29.3170    74.4680    20.6740 ca         1 SL8      -0.146000
      7 C18         29.9620    73.5170    21.5040 ca         1 SL8      -0.042300
      8 C19         30.9510    73.9830    22.4000 ca         1 SL8      -0.132000
      9 C21         31.2740    75.3460    22.4710 ca         1 SL8      -0.085000
     10 C23         30.6210    76.2730    21.6460 ca         1 SL8      -0.132000
     11 C25         29.6340    71.9930    21.4400 c6         1 SL8       0.181500
     12 C27         28.6050    71.3260    19.3730 c2         1 SL8       0.610200
     13 C28         29.9790    71.0570    18.6810 c6         1 SL8       0.040700
     14 C30         30.8920    71.2060    20.9450 c6         1 SL8       0.127600
     15 Br1         25.0370    80.1000    15.2830 br         1 SL8      -0.062100
     16 N5          27.2050    77.6990    17.9300 nb         1 SL8      -0.683000
     17 C6          28.0150    78.5950    18.5780 ca         1 SL8       0.296500
     18 C7          27.9720    79.9750    18.2720 ca         1 SL8      -0.102000
     19 C9          27.0870    80.4480    17.2880 ca         1 SL8      -0.054000
     20 O12         29.7370    78.8410    20.2670 o          1 SL8      -0.579100
     21 N13         28.9300    76.7130    19.8610 ns         1 SL8      -0.127000
     22 N26         28.4480    71.7190    20.5810 n2         1 SL8      -0.674900
     23 O29         31.0980    71.4520    19.5350 os         1 SL8      -0.424000
     24 C33         30.1190    69.5240    18.3290 c3         1 SL8       0.282000
     25 F34         29.8220    68.7220    19.3780 f          1 SL8      -0.110667
     26 F35         29.3020    69.1530    17.3150 f          1 SL8      -0.110667
     27 F36         31.3790    69.2130    17.9410 f          1 SL8      -0.110667
     28 C37         30.1550    71.9300    17.3970 c3         1 SL8      -0.093100
     29 N41         27.4780    71.1550    18.6210 nv         1 SL8      -1.023200
     30 H1          25.7260    77.4190    16.4890 h4         1 SL8       0.039100
     31 H2          30.0640    71.5590    23.5700 hc         1 SL8       0.046367
     32 H3          28.3980    72.0670    23.2640 hc         1 SL8       0.046367
     33 H4          28.9250    70.4340    22.8320 hc         1 SL8       0.046367
     34 H5          28.5560    74.1530    19.9660 ha         1 SL8       0.120000
     35 H6          31.4810    73.2890    23.0470 ha         1 SL8       0.111000
     36 H7          32.0380    75.6850    23.1680 ha         1 SL8       0.115000
     37 H8          30.8990    77.3190    21.7280 ha         1 SL8       0.146000
     38 H9          30.7650    70.1290    21.1210 h1         1 SL8       0.070700
     39 H10         31.7870    71.5220    21.4970 h1         1 SL8       0.070700
     40 H11         28.6220    80.6720    18.7950 ha         1 SL8       0.155000
     41 H12         27.0430    81.5070    17.0410 ha         1 SL8       0.142000
     42 H13         28.2540    76.2460    19.2700 hn         1 SL8       0.181000
     43 H14         30.0380    72.9950    17.6310 hc         1 SL8       0.062367
     44 H15         31.1510    71.7970    16.9590 hc         1 SL8       0.062367
     45 H16         29.4240    71.6830    16.6190 hc         1 SL8       0.062367
     46 H17         26.6610    71.5610    19.0620 hn         1 SL8       0.477500
     47 H18         27.5740    71.3590    17.6340 hn         1 SL8       0.477500
@<TRIPOS>BOND
     1     1     2 ar  
     2     1    15 1   
     3     1    19 ar  
     4     2    16 ar  
     5     2    30 1   
     6     3    11 1   
     7     3    31 1   
     8     3    32 1   
     9     3    33 1   
    10     4    17 1   
    11     4    20 2   
    12     4    21 1   
    13     5     6 ar  
    14     5    10 ar  
    15     5    21 1   
    16     6     7 ar  
    17     6    34 1   
    18     7     8 ar  
    19     7    11 1   
    20     8     9 ar  
    21     8    35 1   
    22     9    10 ar  
    23     9    36 1   
    24    10    37 1   
    25    11    14 1   
    26    11    22 1   
    27    12    13 1   
    28    12    22 2   
    29    12    29 1   
    30    13    23 1   
    31    13    24 1   
    32    13    28 1   
    33    14    23 1   
    34    14    38 1   
    35    14    39 1   
    36    16    17 ar  
    37    17    18 ar  
    38    18    19 ar  
    39    18    40 1   
    40    19    41 1   
    41    21    42 1   
    42    24    25 1   
    43    24    26 1   
    44    24    27 1   
    45    28    43 1   
    46    28    44 1   
    47    28    45 1   
    48    29    46 1   
    49    29    47 1   
@<TRIPOS>SUBSTRUCTURE
     1 SL8         1 TEMP              0 ****  ****    0 ROOT
