@<TRIPOS>MOLECULE
SL8
   47    49     1     0     0
SMALL
abcg2


@<TRIPOS>ATOM
      1 C2          26.1630    79.4460    16.8990 ca         1 SL8      -0.068900
      2 C3          26.2420    78.1080    17.2740 ca         1 SL8       0.370900
      3 C44         29.0040    71.7060    22.7960 c3         1 SL8      -0.072100
      4 C11         29.0840    77.9940    19.5560 c          1 SL8       0.514600
      5 C15         29.6860    75.8260    20.6120 ca         1 SL8      -0.021000
      6 C16         29.3130    74.4770    20.6000 ca         1 SL8      -0.146000
      7 C18         29.9500    73.5400    21.3960 ca         1 SL8      -0.042300
      8 C19         30.9830    73.9710    22.2290 ca         1 SL8      -0.132000
      9 C21         31.3600    75.3020    22.2390 ca         1 SL8      -0.085000
     10 C23         30.7250    76.2440    21.4390 ca         1 SL8      -0.132000
     11 C25         29.5210    72.0730    21.4020 c6         1 SL8       0.181500
     12 C27         28.6570    71.3670    19.3160 c2         1 SL8       0.610200
     13 C28         30.0520    71.0870    18.7500 c6         1 SL8       0.040700
     14 C30         30.6920    71.1680    21.0510 c6         1 SL8       0.127600
     15 BR1         24.8150    80.0000    15.7200 br         1 SL8      -0.062100
     16 N5          27.1690    77.6770    18.1060 nb         1 SL8      -0.683000
     17 C6          28.0550    78.5330    18.6010 ca         1 SL8       0.296500
     18 C7          28.0530    79.8810    18.2740 ca         1 SL8      -0.102000
     19 C9          27.0840    80.3500    17.4020 ca         1 SL8      -0.054000
     20 O12         29.9230    78.7250    20.0510 o          1 SL8      -0.579100
     21 N13         28.9520    76.6710    19.7770 ns         1 SL8      -0.127000
     22 N26         28.4350    71.8570    20.4690 n2         1 SL8      -0.674900
     23 O29         31.0500    71.3510    19.6950 os         1 SL8      -0.424000
     24 C33         30.1900    69.6060    18.3280 c3         1 SL8       0.282000
     25 F34         29.7490    68.7670    19.2730 f          1 SL8      -0.110667
     26 F35         29.5120    69.3200    17.2110 f          1 SL8      -0.110667
     27 F36         31.4670    69.2980    18.0940 f          1 SL8      -0.110667
     28 C37         30.3310    72.0100    17.5620 c3         1 SL8      -0.093100
     29 N41         27.6130    71.0510    18.5030 nv         1 SL8      -1.023200
     30 H1          25.5390    77.3760    16.8940 h4         1 SL8       0.039100
     31 H2          29.7730    71.8310    23.5590 hc         1 SL8       0.046367
     32 H3          28.1550    72.3350    23.0620 hc         1 SL8       0.046367
     33 H4          28.6750    70.6660    22.8140 hc         1 SL8       0.046367
     34 H5          28.4970    74.1680    19.9590 ha         1 SL8       0.120000
     35 H6          31.4990    73.2730    22.8770 ha         1 SL8       0.111000
     36 H7          32.1660    75.6250    22.8860 ha         1 SL8       0.115000
     37 H8          31.0390    77.2750    21.4720 ha         1 SL8       0.146000
     38 H9          30.4270    70.1280    21.2680 h1         1 SL8       0.070700
     39 H10         31.5830    71.4050    21.6320 h1         1 SL8       0.070700
     40 H11         28.7890    80.5550    18.6890 ha         1 SL8       0.155000
     41 H12         27.0540    81.3970    17.1300 ha         1 SL8       0.142000
     42 H13         28.1950    76.2380    19.2610 hn         1 SL8       0.181000
     43 H14         30.2280    73.0440    17.8890 hc         1 SL8       0.062367
     44 H15         31.3500    71.8700    17.2020 hc         1 SL8       0.062367
     45 H16         29.6540    71.8530    16.7260 hc         1 SL8       0.062367
     46 H17         26.7130    71.3840    18.8150 hn         1 SL8       0.477500
     47 H18         27.7280    71.0730    17.5030 hn         1 SL8       0.477500
@<TRIPOS>BOND
     1     1     2 ar  
     2     1    15 1   
     3     1    19 ar  
     4     2    16 ar  
     5     2    30 1   
     6     3    11 1   
     7     3    31 1   
     8     3    32 1   
     9     3    33 1   
    10     4    17 1   
    11     4    20 2   
    12     4    21 1   
    13     5     6 ar  
    14     5    10 ar  
    15     5    21 1   
    16     6     7 ar  
    17     6    34 1   
    18     7     8 ar  
    19     7    11 1   
    20     8     9 ar  
    21     8    35 1   
    22     9    10 ar  
    23     9    36 1   
    24    10    37 1   
    25    11    14 1   
    26    11    22 1   
    27    12    13 1   
    28    12    22 2   
    29    12    29 1   
    30    13    23 1   
    31    13    24 1   
    32    13    28 1   
    33    14    23 1   
    34    14    38 1   
    35    14    39 1   
    36    16    17 ar  
    37    17    18 ar  
    38    18    19 ar  
    39    18    40 1   
    40    19    41 1   
    41    21    42 1   
    42    24    25 1   
    43    24    26 1   
    44    24    27 1   
    45    28    43 1   
    46    28    44 1   
    47    28    45 1   
    48    29    46 1   
    49    29    47 1   
@<TRIPOS>SUBSTRUCTURE
     1 SL8         1 TEMP              0 ****  ****    0 ROOT
