@<TRIPOS>MOLECULE
SL9
   37    36     1     0     0
SMALL
No Charge or Current Charge


@<TRIPOS>ATOM
      1 C7          27.6780    60.8240    16.0890 c3         1 SL9       0.039300
      2 O7          22.5090    56.2050    21.8130 o          1 SL9      -0.597100
      3 C8          27.2620    59.4480    16.6030 c2         1 SL9       0.640200
      4 C13         24.6340    55.5500    22.7310 c3         1 SL9      -0.177100
      5 N           23.7480    57.8870    22.6430 ns         1 SL9      -0.497900
      6 CA          25.0210    58.5370    23.0440 c3         1 SL9       0.042700
      7 C           24.9760    58.9590    24.5480 c          1 SL9       0.571100
      8 O           23.9990    58.8250    25.2690 o          1 SL9      -0.586100
      9 CB          25.3470    59.7340    22.1070 c3         1 SL9      -0.083400
     10 CG          25.4230    59.3980    20.5950 c3         1 SL9      -0.078400
     11 CD          26.5770    58.4350    20.2150 c3         1 SL9      -0.087400
     12 CE          26.6670    58.1280    18.7060 c3         1 SL9       0.226800
     13 NZ          27.0900    59.3220    17.9570 nu         1 SL9      -0.966400
     14 N2          26.1060    59.5060    25.0560 nt         1 SL9      -0.610000
     15 N4          27.0780    58.4230    15.8800 n2         1 SL9      -0.835100
     16 S1          27.7950    62.1950    17.3670 sh         1 SL9      -0.451800
     17 H1          26.9600    61.1360    15.3210 h1         1 SL9       0.082700
     18 H2          28.6560    60.7280    15.6020 h1         1 SL9       0.082700
     19 H3          24.3010    54.5140    22.6040 hc         1 SL9       0.059367
     20 H4          25.5350    55.7390    22.1380 hc         1 SL9       0.059367
     21 H5          24.9670    55.7480    23.7550 hc         1 SL9       0.059367
     22 H6          22.9570    58.4870    22.4450 hn         1 SL9       0.328500
     23 H7          25.8470    57.8220    22.9600 h1         1 SL9       0.058700
     24 H8          26.3000    60.1870    22.4070 hc         1 SL9       0.057200
     25 H9          24.5820    60.5080    22.2520 hc         1 SL9       0.057200
     26 H10         25.5460    60.3390    20.0450 hc         1 SL9       0.059700
     27 H11         24.4680    58.9730    20.2600 hc         1 SL9       0.059700
     28 H12         26.4370    57.4840    20.7390 hc         1 SL9       0.041700
     29 H13         27.5340    58.8460    20.5620 hc         1 SL9       0.041700
     30 H14         25.6890    57.7750    18.3480 h1         1 SL9       0.041700
     31 H15         27.3950    57.3190    18.5540 h1         1 SL9       0.041700
     32 H16         27.2440    60.1860    18.4750 hn         1 SL9       0.491000
     33 H17         26.1220    59.7940    26.0230 hn         1 SL9       0.316500
     34 H18         26.9240    59.6180    24.4750 hn         1 SL9       0.316500
     35 H19         26.8170    57.6660    16.5190 hn         1 SL9       0.376400
     36 H20         28.1720    63.1720    16.5050 hs         1 SL9       0.216800
     37 C12         23.5540    56.5590    22.3340 c          1 SL9       0.601100
@<TRIPOS>BOND
     1     1     3 1   
     2     1    16 1   
     3     1    17 1   
     4     1    18 1   
     5     2    37 2   
     6     3    13 1   
     7     3    15 2   
     8     4    19 1   
     9     4    20 1   
    10     4    21 1   
    11     4    37 1   
    12     5     6 1   
    13     5    22 1   
    14     5    37 1   
    15     6     7 1   
    16     6     9 1   
    17     6    23 1   
    18     7     8 2   
    19     7    14 1   
    20     9    10 1   
    21     9    24 1   
    22     9    25 1   
    23    10    11 1   
    24    10    26 1   
    25    10    27 1   
    26    11    12 1   
    27    11    28 1   
    28    11    29 1   
    29    12    13 1   
    30    12    30 1   
    31    12    31 1   
    32    13    32 1   
    33    14    33 1   
    34    14    34 1   
    35    15    35 1   
    36    16    36 1   
@<TRIPOS>SUBSTRUCTURE
     1 SL9         1 TEMP              0 ****  ****    0 ROOT
