@<TRIPOS>MOLECULE
SL9
   37    36     1     0     0
SMALL
abcg2


@<TRIPOS>ATOM
      1 C7          27.7110    60.8290    16.1550 c3         1 SL9       0.039300
      2 O7          22.4190    56.2000    22.1480 o          1 SL9      -0.597100
      3 C8          27.2010    59.5090    16.6820 c2         1 SL9       0.640200
      4 C13         24.6150    55.6470    22.9380 c3         1 SL9      -0.177100
      5 N           23.8310    57.9190    22.4700 ns         1 SL9      -0.497900
      6 CA          25.0540    58.5520    22.9140 c3         1 SL9       0.042700
      7 C           24.9390    59.0160    24.3730 c          1 SL9       0.571100
      8 O           23.8710    59.3960    24.8460 o          1 SL9      -0.586100
      9 CB          25.3850    59.7670    22.0290 c3         1 SL9      -0.083400
     10 CG          25.5410    59.4340    20.5450 c3         1 SL9      -0.078400
     11 CD          26.6860    58.4680    20.2400 c3         1 SL9      -0.087400
     12 CE          26.8460    58.1840    18.7520 c3         1 SL9       0.226800
     13 NZ          27.2480    59.3780    18.0290 nu         1 SL9      -0.966400
     14 N2          26.0910    59.0080    25.0650 nt         1 SL9      -0.610000
     15 N4          26.7690    58.6390    15.8350 n2         1 SL9      -0.835100
     16 S1          26.7440    62.2180    16.8800 sh         1 SL9      -0.451800
     17 H1          27.6060    60.8350    15.0750 h1         1 SL9       0.082700
     18 H2          28.7590    60.9600    16.4250 h1         1 SL9       0.082700
     19 H3          24.2130    54.6370    22.9240 hc         1 SL9       0.059367
     20 H4          25.4780    55.7000    22.2700 hc         1 SL9       0.059367
     21 H5          24.9600    55.8850    23.9460 hc         1 SL9       0.059367
     22 H6          23.0640    58.5290    22.2210 hn         1 SL9       0.328500
     23 H7          25.8640    57.8300    22.8430 h1         1 SL9       0.058700
     24 H8          26.3040    60.2190    22.4070 hc         1 SL9       0.057200
     25 H9          24.5890    60.5060    22.1540 hc         1 SL9       0.057200
     26 H10         25.7010    60.3720    20.0080 hc         1 SL9       0.059700
     27 H11         24.6080    59.0130    20.1620 hc         1 SL9       0.059700
     28 H12         26.5160    57.5110    20.7360 hc         1 SL9       0.041700
     29 H13         27.6260    58.8650    20.6390 hc         1 SL9       0.041700
     30 H14         25.8920    57.8320    18.3460 h1         1 SL9       0.041700
     31 H15         27.5770    57.3820    18.5990 h1         1 SL9       0.041700
     32 H16         27.6980    60.1090    18.5580 hn         1 SL9       0.491000
     33 H17         26.1130    59.3660    26.0080 hn         1 SL9       0.316500
     34 H18         26.9510    58.6800    24.6580 hn         1 SL9       0.316500
     35 H19         26.4890    57.7760    16.2990 hn         1 SL9       0.376400
     36 H20         27.4270    63.2040    16.2740 hs         1 SL9       0.216800
     37 C12         23.5330    56.6010    22.4930 c          1 SL9       0.601100
@<TRIPOS>BOND
     1     1     3 1   
     2     1    16 1   
     3     1    17 1   
     4     1    18 1   
     5     2    37 2   
     6     3    13 1   
     7     3    15 2   
     8     4    19 1   
     9     4    20 1   
    10     4    21 1   
    11     4    37 1   
    12     5     6 1   
    13     5    22 1   
    14     5    37 1   
    15     6     7 1   
    16     6     9 1   
    17     6    23 1   
    18     7     8 2   
    19     7    14 1   
    20     9    10 1   
    21     9    24 1   
    22     9    25 1   
    23    10    11 1   
    24    10    26 1   
    25    10    27 1   
    26    11    12 1   
    27    11    28 1   
    28    11    29 1   
    29    12    13 1   
    30    12    30 1   
    31    12    31 1   
    32    13    32 1   
    33    14    33 1   
    34    14    34 1   
    35    15    35 1   
    36    16    36 1   
@<TRIPOS>SUBSTRUCTURE
     1 SL9         1 TEMP              0 ****  ****    0 ROOT
