@<TRIPOS>MOLECULE
SLA
   32    32     1     0     0
SMALL
No Charge or Current Charge


@<TRIPOS>ATOM
      1 C1          -0.7880     0.7910     0.6650 c5         1 SLA       0.179300
      2 C2          -1.6460    -0.4690     0.9770 c5         1 SLA      -0.189700
      3 C3          -1.9670    -1.0350    -0.4120 c          1 SLA       0.575000
      4 N4          -1.0540    -0.4850    -1.2710 ns         1 SLA      -0.500900
      5 C5           0.0100     0.3080    -0.6080 c5         1 SLA      -0.037600
      6 C6           0.3050     1.5260    -1.5500 c          1 SLA       0.598900
      7 O7           1.4090     1.8580    -1.9770 o          1 SLA      -0.519100
      8 O8          -1.6160     1.9250     0.4040 oh         1 SLA      -0.656000
      9 C9          -2.8920    -0.2610     1.8800 c3         1 SLA      -0.074100
     10 O10         -2.9350    -1.6790    -0.7820 o          1 SLA      -0.536000
     11 C11          1.2860    -0.5710    -0.3290 c3         1 SLA       0.172300
     12 O12          1.8430    -0.9940    -1.5850 oh         1 SLA      -0.652000
     13 C13          2.3850     0.0840     0.5900 c3         1 SLA      -0.082700
     14 C14          2.2800    -0.4210     2.0540 c3         1 SLA      -0.091100
     15 C15          3.8480    -0.0870     0.0960 c3         1 SLA      -0.091100
     16 H18         -0.5960     2.0900    -1.8780 h4         1 SLA       0.020200
     17 H1          -0.1170     1.0370     1.4970 h1         1 SLA       0.054700
     18 H2          -0.9980    -1.2010     1.4700 hc         1 SLA       0.077700
     19 H3          -1.1030    -0.7290    -2.2550 hn         1 SLA       0.338500
     20 H4          -2.0880     2.1330     1.2410 ho         1 SLA       0.457000
     21 H5          -3.3810    -1.2190     2.0960 hc         1 SLA       0.046700
     22 H6          -2.6130     0.1900     2.8400 hc         1 SLA       0.046700
     23 H7          -3.6380     0.3860     1.4030 hc         1 SLA       0.046700
     24 H8           0.9400    -1.4730     0.1950 h1         1 SLA       0.072700
     25 H9           2.1990    -0.1850    -2.0150 ho         1 SLA       0.453000
     26 H10          2.1990     1.1650     0.6160 hc         1 SLA       0.055700
     27 H11          2.5400    -1.4850     2.1140 hc         1 SLA       0.039367
     28 H12          2.9670     0.1330     2.7050 hc         1 SLA       0.039367
     29 H13          1.2700    -0.3030     2.4590 hc         1 SLA       0.039367
     30 H14          3.9970     0.3910    -0.8800 hc         1 SLA       0.039367
     31 H15          4.5490     0.3830     0.7970 hc         1 SLA       0.039367
     32 H16          4.1150    -1.1480     0.0120 hc         1 SLA       0.039367
@<TRIPOS>BOND
     1     1     2 1   
     2     1     5 1   
     3     1     8 1   
     4     1    17 1   
     5     2     3 1   
     6     2     9 1   
     7     2    18 1   
     8     3     4 1   
     9     3    10 2   
    10     4     5 1   
    11     4    19 1   
    12     5     6 1   
    13     5    11 1   
    14     6     7 2   
    15     6    16 1   
    16     8    20 1   
    17     9    21 1   
    18     9    22 1   
    19     9    23 1   
    20    11    12 1   
    21    11    13 1   
    22    11    24 1   
    23    12    25 1   
    24    13    14 1   
    25    13    15 1   
    26    13    26 1   
    27    14    27 1   
    28    14    28 1   
    29    14    29 1   
    30    15    30 1   
    31    15    31 1   
    32    15    32 1   
@<TRIPOS>SUBSTRUCTURE
     1 SLA         1 TEMP              0 ****  ****    0 ROOT
