@<TRIPOS>MOLECULE
SLA
   32    32     1     0     0
SMALL
abcg2


@<TRIPOS>ATOM
      1 C1          -0.7420     0.6800     0.7240 c5         1 SLA       0.179300
      2 C2          -1.7500    -0.4450     0.9760 c5         1 SLA      -0.189700
      3 C3          -2.0030    -1.0180    -0.4040 c          1 SLA       0.575000
      4 N4          -1.0040    -0.5960    -1.2060 ns         1 SLA      -0.500900
      5 C5           0.0010     0.2220    -0.5590 c5         1 SLA      -0.037600
      6 C6           0.2620     1.4240    -1.4590 c          1 SLA       0.598900
      7 O7           1.3320     1.9530    -1.5980 o          1 SLA      -0.519100
      8 O8          -1.3550     1.9130     0.4440 oh         1 SLA      -0.656000
      9 C9          -3.0110    -0.0530     1.7240 c3         1 SLA      -0.074100
     10 O10         -2.9240    -1.7420    -0.7320 o          1 SLA      -0.536000
     11 C11          1.2740    -0.6060    -0.2610 c3         1 SLA       0.172300
     12 O12          1.7840    -1.1290    -1.4640 oh         1 SLA      -0.652000
     13 C13          2.3210     0.1070     0.6460 c3         1 SLA      -0.082700
     14 C14          2.4400    -0.6310     1.9780 c3         1 SLA      -0.091100
     15 C15          3.7020     0.2390     0.0090 c3         1 SLA      -0.091100
     16 H18         -0.6230     1.7610    -2.0250 h4         1 SLA       0.020200
     17 H1          -0.0440     0.7780     1.5600 h1         1 SLA       0.054700
     18 H2          -1.2350    -1.2310     1.5420 hc         1 SLA       0.077700
     19 H3          -0.8660    -0.9790    -2.1300 hn         1 SLA       0.338500
     20 H4          -1.6210     2.3230     1.2730 ho         1 SLA       0.457000
     21 H5          -3.6330    -0.9300     1.9000 hc         1 SLA       0.046700
     22 H6          -2.7680     0.3750     2.6970 hc         1 SLA       0.046700
     23 H7          -3.6060     0.6720     1.1710 hc         1 SLA       0.046700
     24 H8           0.9230    -1.4900     0.2830 h1         1 SLA       0.072700
     25 H9           2.2580    -0.4380    -1.9390 ho         1 SLA       0.453000
     26 H10          1.9750     1.1210     0.8650 hc         1 SLA       0.055700
     27 H11          2.8130    -1.6470     1.8290 hc         1 SLA       0.039367
     28 H12          3.1280    -0.1170     2.6510 hc         1 SLA       0.039367
     29 H13          1.4800    -0.7100     2.4930 hc         1 SLA       0.039367
     30 H14          3.6890     0.8310    -0.9070 hc         1 SLA       0.039367
     31 H15          4.3710     0.7490     0.7030 hc         1 SLA       0.039367
     32 H16          4.1430    -0.7330    -0.2160 hc         1 SLA       0.039367
@<TRIPOS>BOND
     1     1     2 1   
     2     1     5 1   
     3     1     8 1   
     4     1    17 1   
     5     2     3 1   
     6     2     9 1   
     7     2    18 1   
     8     3     4 1   
     9     3    10 2   
    10     4     5 1   
    11     4    19 1   
    12     5     6 1   
    13     5    11 1   
    14     6     7 2   
    15     6    16 1   
    16     8    20 1   
    17     9    21 1   
    18     9    22 1   
    19     9    23 1   
    20    11    12 1   
    21    11    13 1   
    22    11    24 1   
    23    12    25 1   
    24    13    14 1   
    25    13    15 1   
    26    13    26 1   
    27    14    27 1   
    28    14    28 1   
    29    14    29 1   
    30    15    30 1   
    31    15    31 1   
    32    15    32 1   
@<TRIPOS>SUBSTRUCTURE
     1 SLA         1 TEMP              0 ****  ****    0 ROOT
