@<TRIPOS>MOLECULE
SLB
   39    39     1     0     0
SMALL
abcg2


@<TRIPOS>ATOM
      1 C1          -2.5240     0.4220    -2.2900 c          1 SLB       0.717000
      2 C2          -1.8870    -0.2580    -1.0410 c6         1 SLB       0.240000
      3 C3          -2.5190     0.1770     0.2710 c6         1 SLB      -0.116400
      4 C4          -1.7450    -0.3800     1.4570 c6         1 SLB       0.150300
      5 C5          -0.2880     0.0610     1.3590 c6         1 SLB       0.080700
      6 C6           0.2890    -0.3040    -0.0190 c6         1 SLB       0.139300
      7 C7           1.6550     0.3410    -0.2590 c3         1 SLB       0.155300
      8 C8           2.3470    -0.2370    -1.5080 c3         1 SLB       0.132300
      9 C9           3.6750     0.4560    -1.7680 c3         1 SLB       0.126600
     10 C11          1.6270    -0.8040     4.5050 c3         1 SLB      -0.184100
     11 N5           0.5140    -0.5430     2.3940 ns         1 SLB      -0.496900
     12 O1A         -2.6800     1.6470    -2.2660 o          1 SLB      -0.693500
     13 O1B         -2.8030    -0.3750    -3.2140 o          1 SLB      -0.693500
     14 O2          -1.9780    -1.6330    -1.1880 oh         1 SLB      -0.717000
     15 O4          -2.2460     0.0830     2.6900 oh         1 SLB      -0.664000
     16 O6          -0.5350     0.1660    -1.0640 os         1 SLB      -0.465000
     17 O7           1.5400     1.7430    -0.3260 oh         1 SLB      -0.726000
     18 O8           2.5040    -1.6340    -1.3880 oh         1 SLB      -0.635000
     19 O9           4.2540    -0.0970    -2.9270 oh         1 SLB      -0.710000
     20 O10          0.8050     1.2930     3.6870 o          1 SLB      -0.597100
     21 H31         -3.5620    -0.1530     0.3070 hc         1 SLB       0.063700
     22 H32         -2.5200     1.2690     0.3220 hc         1 SLB       0.063700
     23 H4          -1.7760    -1.4790     1.4230 h1         1 SLB       0.031700
     24 H5          -0.2440     1.1440     1.4920 h1         1 SLB       0.110700
     25 H6           0.3980    -1.3950    -0.0710 h1         1 SLB       0.051700
     26 H7           2.2930     0.1250     0.6060 h1         1 SLB       0.052700
     27 H8           1.6990    -0.0870    -2.3790 h1         1 SLB       0.114700
     28 H91          3.5030     1.5310    -1.8780 h1         1 SLB       0.023200
     29 H92          4.3250     0.3260    -0.8880 h1         1 SLB       0.023200
     30 H111         2.2630    -0.2200     5.1660 hc         1 SLB       0.050367
     31 H112         0.8720    -1.3030     5.1150 hc         1 SLB       0.050367
     32 H113         2.2280    -1.5790     4.0290 hc         1 SLB       0.050367
     33 HN5          0.6330    -1.5440     2.3550 hn         1 SLB       0.297500
     34 HO2         -2.2430    -1.7340    -2.1250 ho         1 SLB       0.492000
     35 HO4         -3.1410    -0.2570     2.7950 ho         1 SLB       0.432000
     36 HO7          0.8410     1.9470    -0.9580 ho         1 SLB       0.536000
     37 HO8          3.1320    -1.8130    -0.6800 ho         1 SLB       0.420000
     38 HO9          5.0530     0.3990    -3.1240 ho         1 SLB       0.488000
     39 C10          0.9490     0.0950     3.4990 c          1 SLB       0.606100
@<TRIPOS>BOND
     1     1     2 1   
     2     1    12 1   
     3     1    13 1   
     4     2     3 1   
     5     2    14 1   
     6     2    16 1   
     7     3     4 1   
     8     3    21 1   
     9     3    22 1   
    10     4     5 1   
    11     4    15 1   
    12     4    23 1   
    13     5     6 1   
    14     5    11 1   
    15     5    24 1   
    16     6     7 1   
    17     6    16 1   
    18     6    25 1   
    19     7     8 1   
    20     7    17 1   
    21     7    26 1   
    22     8     9 1   
    23     8    18 1   
    24     8    27 1   
    25     9    19 1   
    26     9    28 1   
    27     9    29 1   
    28    10    30 1   
    29    10    31 1   
    30    10    32 1   
    31    10    39 1   
    32    11    33 1   
    33    11    39 1   
    34    14    34 1   
    35    15    35 1   
    36    17    36 1   
    37    18    37 1   
    38    19    38 1   
    39    20    39 2   
@<TRIPOS>SUBSTRUCTURE
     1 SLB         1 TEMP              0 ****  ****    0 ROOT
