@<TRIPOS>MOLECULE
SLB
   39    39     1     0     0
SMALL
No Charge or Current Charge


@<TRIPOS>ATOM
      1 C1          -2.8770     0.5890    -2.2230 c          1 SLB       0.717000
      2 C2          -1.9900    -0.1260    -1.0810 c6         1 SLB       0.240000
      3 C3          -2.6390     0.1290     0.3070 c6         1 SLB      -0.116400
      4 C4          -1.7790    -0.4290     1.4680 c6         1 SLB       0.150300
      5 C5          -0.3150     0.1030     1.3810 c6         1 SLB       0.080700
      6 C6           0.2530    -0.2080    -0.0360 c6         1 SLB       0.139300
      7 C7           1.6670     0.4250    -0.2770 c3         1 SLB       0.155300
      8 C8           2.4730    -0.2770    -1.4160 c3         1 SLB       0.132300
      9 C9           3.8520     0.3850    -1.6880 c3         1 SLB       0.126600
     10 C11          1.7070    -0.7390     4.5700 c3         1 SLB      -0.184100
     11 N5           0.5320    -0.4880     2.4440 ns         1 SLB      -0.496900
     12 O1A         -2.4620     1.6490    -2.6820 o          1 SLB      -0.693500
     13 O1B         -3.4870    -0.1880    -2.9560 o          1 SLB      -0.693500
     14 O2          -1.9320    -1.5420    -1.3410 oh         1 SLB      -0.717000
     15 O4          -2.3870    -0.0820     2.7220 oh         1 SLB      -0.664000
     16 O6          -0.6200     0.3600    -1.0560 os         1 SLB      -0.465000
     17 O7           1.4970     1.8200    -0.5920 oh         1 SLB      -0.726000
     18 O8           2.7150    -1.6570    -1.0860 oh         1 SLB      -0.635000
     19 O9           4.5970    -0.3980    -2.6410 oh         1 SLB      -0.710000
     20 O10          0.6420     1.3040     3.8550 o          1 SLB      -0.597100
     21 H31         -3.6410    -0.3190     0.3340 hc         1 SLB       0.063700
     22 H32         -2.7810     1.2100     0.4410 hc         1 SLB       0.063700
     23 H4          -1.7450    -1.5250     1.3740 h1         1 SLB       0.031700
     24 H5          -0.3360     1.1950     1.5080 h1         1 SLB       0.110700
     25 H6           0.3180    -1.2980    -0.1670 h1         1 SLB       0.051700
     26 H7           2.2570     0.3230     0.6440 h1         1 SLB       0.052700
     27 H8           1.8810    -0.2090    -2.3410 h1         1 SLB       0.114700
     28 H91          3.6980     1.4020    -2.0740 h1         1 SLB       0.023200
     29 H92          4.4090     0.4670    -0.7450 h1         1 SLB       0.023200
     30 H111         2.0020    -0.2090     5.4820 hc         1 SLB       0.050367
     31 H112         1.1270    -1.6410     4.7960 hc         1 SLB       0.050367
     32 H113         2.5750    -1.1480     4.0410 hc         1 SLB       0.050367
     33 HN5          0.8050    -1.4590     2.3520 hn         1 SLB       0.297500
     34 HO2         -2.5220    -1.6350    -2.1290 ho         1 SLB       0.492000
     35 HO4         -3.2340    -0.5760     2.7720 ho         1 SLB       0.432000
     36 HO7          0.6000     1.8480    -1.0120 ho         1 SLB       0.536000
     37 HO8          3.5130    -1.8900    -1.6140 ho         1 SLB       0.420000
     38 HO9          5.4290     0.0950    -2.8330 ho         1 SLB       0.488000
     39 C10          0.9080     0.1360     3.6110 c          1 SLB       0.606100
@<TRIPOS>BOND
     1     1     2 1   
     2     1    12 1   
     3     1    13 1   
     4     2     3 1   
     5     2    14 1   
     6     2    16 1   
     7     3     4 1   
     8     3    21 1   
     9     3    22 1   
    10     4     5 1   
    11     4    15 1   
    12     4    23 1   
    13     5     6 1   
    14     5    11 1   
    15     5    24 1   
    16     6     7 1   
    17     6    16 1   
    18     6    25 1   
    19     7     8 1   
    20     7    17 1   
    21     7    26 1   
    22     8     9 1   
    23     8    18 1   
    24     8    27 1   
    25     9    19 1   
    26     9    28 1   
    27     9    29 1   
    28    10    30 1   
    29    10    31 1   
    30    10    32 1   
    31    10    39 1   
    32    11    33 1   
    33    11    39 1   
    34    14    34 1   
    35    15    35 1   
    36    17    36 1   
    37    18    37 1   
    38    19    38 1   
    39    20    39 2   
@<TRIPOS>SUBSTRUCTURE
     1 SLB         1 TEMP              0 ****  ****    0 ROOT
