@<TRIPOS>MOLECULE
SLC
   26    26     1     0     0
SMALL
abcg2


@<TRIPOS>ATOM
      1 C4           0.4540    -0.6960    -0.4770 c          1 SLC       0.613300
      2 O1           0.8550    -1.8470    -0.3360 o          1 SLC      -0.584100
      3 C2          -1.0000    -0.4180    -0.7340 ce         1 SLC      -0.148400
      4 C3          -1.5600    -0.7840    -1.8830 c2         1 SLC      -0.300000
      5 C1          -1.7820     0.1950     0.3830 c3         1 SLC       0.190800
      6 SE          -2.1160    -1.2090     1.7360 sh         1 SLC      -0.514800
      7 N            1.2600     0.3660    -0.4240 n          1 SLC      -0.374800
      8 C8           2.6650     0.2140    -0.0750 c5         1 SLC      -0.029300
      9 C9           2.8770    -0.3070     1.3600 c          1 SLC       0.726000
     10 O3           1.9880    -0.0530     2.1890 o          1 SLC      -0.720000
     11 C7           3.2220     1.6410    -0.2270 c5         1 SLC      -0.077400
     12 C6           2.2330     2.3360    -1.1570 c5         1 SLC      -0.099400
     13 C5           0.9020     1.7440    -0.7160 c5         1 SLC       0.110000
     14 O2           3.9650    -0.8850     1.5610 o          1 SLC      -0.720000
     15 H31C        -2.6130    -0.6210    -2.0730 ha         1 SLC       0.159500
     16 H32C        -0.9850    -1.2440    -2.6760 ha         1 SLC       0.159500
     17 H11C        -1.2350     1.0000     0.8720 h1         1 SLC       0.059700
     18 H12C        -2.7360     0.5810     0.0260 h1         1 SLC       0.059700
     19 HSE         -2.5530    -0.2980     2.7840 hs         1 SLC       0.228800
     20 H8           3.1500    -0.4570    -0.7900 h1         1 SLC       0.051700
     21 H71C         3.2280     2.1530     0.7390 hc         1 SLC       0.047200
     22 H72C         4.2440     1.6410    -0.6030 hc         1 SLC       0.047200
     23 H61C         2.2540     3.4220    -1.0710 hc         1 SLC       0.029200
     24 H62C         2.4280     2.0750    -2.1990 hc         1 SLC       0.029200
     25 H51C         0.5340     2.2570     0.1790 h1         1 SLC       0.028200
     26 H52C         0.1320     1.8060    -1.4840 h1         1 SLC       0.028200
@<TRIPOS>BOND
     1     1     2 2   
     2     1     3 1   
     3     1     7 1   
     4     3     4 2   
     5     3     5 1   
     6     4    15 1   
     7     4    16 1   
     8     5     6 1   
     9     5    17 1   
    10     5    18 1   
    11     6    19 1   
    12     7     8 1   
    13     7    13 1   
    14     8     9 1   
    15     8    11 1   
    16     8    20 1   
    17     9    10 1   
    18     9    14 1   
    19    11    12 1   
    20    11    21 1   
    21    11    22 1   
    22    12    13 1   
    23    12    23 1   
    24    12    24 1   
    25    13    25 1   
    26    13    26 1   
@<TRIPOS>SUBSTRUCTURE
     1 SLC         1 TEMP              0 ****  ****    0 ROOT
