@<TRIPOS>MOLECULE
SLC
   26    26     1     0     0
SMALL
No Charge or Current Charge


@<TRIPOS>ATOM
      1 C4           0.5140    -0.7960    -0.4860 c          1 SLC       0.613300
      2 O1           1.0370    -1.9000    -0.5900 o          1 SLC      -0.584100
      3 C2          -0.9840    -0.6480    -0.5880 ce         1 SLC      -0.148400
      4 C3          -1.6860    -1.2990    -1.5510 c2         1 SLC      -0.300000
      5 C1          -1.6630     0.2770     0.4130 c3         1 SLC       0.190800
      6 SE          -3.1330    -0.5170     1.2260 sh         1 SLC      -0.514800
      7 N            1.3230     0.3630    -0.4010 n          1 SLC      -0.374800
      8 C8           2.8060     0.3000    -0.2270 c5         1 SLC      -0.029300
      9 C9           3.3240    -0.5370     0.9950 c          1 SLC       0.726000
     10 O3           2.7330    -0.4780     2.0670 o          1 SLC      -0.720000
     11 C7           3.1610     1.8020    -0.0210 c5         1 SLC      -0.077400
     12 C6           2.1490     2.4910    -0.9670 c5         1 SLC      -0.099400
     13 C5           0.8360     1.7420    -0.6250 c5         1 SLC       0.110000
     14 O2           4.3030    -1.2560     0.8400 o          1 SLC      -0.720000
     15 H31C        -2.7680    -1.1940    -1.6460 ha         1 SLC       0.159500
     16 H32C        -1.1970    -1.9540    -2.2720 ha         1 SLC       0.159500
     17 H11C        -0.9570     0.5590     1.2050 h1         1 SLC       0.059700
     18 H12C        -1.9950     1.1910    -0.0980 h1         1 SLC       0.059700
     19 HSE         -3.4580     0.5480     2.0010 hs         1 SLC       0.228800
     20 H8           3.2720    -0.0910    -1.1400 h1         1 SLC       0.051700
     21 H71C         3.0030     2.1200     1.0170 hc         1 SLC       0.047200
     22 H72C         4.2030     2.0250    -0.2770 hc         1 SLC       0.047200
     23 H61C         2.0720     3.5700    -0.7960 hc         1 SLC       0.029200
     24 H62C         2.4270     2.3430    -2.0180 hc         1 SLC       0.029200
     25 H51C         0.3820     2.1490     0.2880 h1         1 SLC       0.028200
     26 H52C         0.1060     1.8010    -1.4440 h1         1 SLC       0.028200
@<TRIPOS>BOND
     1     1     2 2   
     2     1     3 1   
     3     1     7 1   
     4     3     4 2   
     5     3     5 1   
     6     4    15 1   
     7     4    16 1   
     8     5     6 1   
     9     5    17 1   
    10     5    18 1   
    11     6    19 1   
    12     7     8 1   
    13     7    13 1   
    14     8     9 1   
    15     8    11 1   
    16     8    20 1   
    17     9    10 1   
    18     9    14 1   
    19    11    12 1   
    20    11    21 1   
    21    11    22 1   
    22    12    13 1   
    23    12    23 1   
    24    12    24 1   
    25    13    25 1   
    26    13    26 1   
@<TRIPOS>SUBSTRUCTURE
     1 SLC         1 TEMP              0 ****  ****    0 ROOT
