@<TRIPOS>MOLECULE
SLD
   65    67     1     0     0
SMALL
bcc


@<TRIPOS>ATOM
      1 C1          -4.2700    -0.2180    -0.6680 ca         1 SLD      -0.197000
      2 C2          -5.2330    -0.0510     0.3300 ca         1 SLD       0.119600
      3 C3          -3.0090     0.3260    -0.5230 ca         1 SLD      -0.071000
      4 N1          -6.5100    -0.5830     0.1430 n          1 SLD      -0.418000
      5 C4          -4.8960     0.6790     1.4680 ca         1 SLD      -0.194000
      6 C5          -6.9730    -1.0710    -1.1430 c5         1 SLD       0.066000
      7 C6          -7.3930    -0.9160     1.1310 c          1 SLD       0.841600
      8 C7          -8.4510    -1.3090    -0.8460 c5         1 SLD       0.106100
      9 C8          -9.3270    -0.1460    -1.2880 c3         1 SLD       0.090000
     10 O1          -8.4950    -1.4350     0.5810 os         1 SLD      -0.384900
     11 N2         -10.6930    -0.2680    -0.8520 ns         1 SLD      -0.568900
     12 C9         -11.5960    -1.0400    -1.4830 c          1 SLD       0.670100
     13 C10        -12.9760    -1.0550    -0.8770 c3         1 SLD      -0.178100
     14 O2         -11.3190    -1.6870    -2.4840 o          1 SLD      -0.611100
     15 O3          -7.2640    -0.8020     2.3220 o          1 SLD      -0.585500
     16 C11         -3.6240     1.1990     1.5730 ca         1 SLD       0.171900
     17 C12         -2.6330     1.0580     0.6060 ca         1 SLD      -0.110800
     18 F1          -3.3420     1.8980     2.6860 f          1 SLD      -0.138900
     19 C2B         -1.3090     1.6580     0.7870 ce         1 SLD      -0.098200
     20 C3B         -0.3070     1.6240    -0.0930 c2         1 SLD      -0.161200
     21 C4B          1.0260     2.2570     0.1300 c3         1 SLD      -0.040200
     22 C5B          2.1620     1.2340     0.1090 c3         1 SLD      -0.093400
     23 CAS          3.5170     1.9090     0.2470 c3         1 SLD       0.102000
     24 N5S          4.5820     0.9260     0.2170 ns         1 SLD      -0.569900
     25 C0S          5.8700     1.2510     0.0650 c          1 SLD       0.666100
     26 C9S          6.8230     0.0660     0.1200 c3         1 SLD      -0.160200
     27 O2S          6.2560     2.4000    -0.0950 o          1 SLD      -0.608100
     28 C8S          8.1800     0.4110    -0.3650 c2         1 SLD       0.017800
     29 C1S          9.2050    -1.8250    -0.1270 c          1 SLD       0.730700
     30 O1S          8.2360    -2.3920     0.3350 o          1 SLD      -0.614500
     31 N2S         10.3790    -2.4960    -0.3430 ns         1 SLD      -0.622500
     32 C3S         11.5450    -1.9580    -0.8470 c          1 SLD       0.848900
     33 O3S         12.5250    -2.6520    -0.9990 o          1 SLD      -0.561500
     34 N4S         11.5640    -0.6130    -1.1720 nc         1 SLD      -0.642100
     35 C5S         10.5170     0.1160    -1.0150 cd         1 SLD       0.566600
     36 C7S         10.6330     1.5560    -1.3960 c3         1 SLD      -0.154400
     37 C6S          9.2490    -0.3990    -0.4950 cd         1 SLD      -0.351800
     38 H1          -4.4940    -0.7770    -1.5660 ha         1 SLD       0.136000
     39 H3          -2.2930     0.1680    -1.3190 ha         1 SLD       0.135000
     40 H4          -5.6010     0.8610     2.2640 ha         1 SLD       0.179000
     41 H5          -6.8230    -0.3290    -1.9280 h1         1 SLD       0.069700
     42 H5A         -6.4590    -1.9910    -1.4300 h1         1 SLD       0.069700
     43 H7          -8.8080    -2.2440    -1.2740 h1         1 SLD       0.110700
     44 H8          -8.9290     0.7920    -0.8970 h1         1 SLD       0.065700
     45 H8A         -9.2830    -0.0830    -2.3770 h1         1 SLD       0.065700
     46 HN2        -10.9630     0.2160    -0.0120 hn         1 SLD       0.325500
     47 H10        -13.7040    -0.7600    -1.6330 hc         1 SLD       0.063367
     48 H10A       -13.2240    -2.0710    -0.5690 hc         1 SLD       0.063367
     49 H10B       -13.0840    -0.3970    -0.0180 hc         1 SLD       0.063367
     50 H2B         -1.1420     2.1840     1.7210 ha         1 SLD       0.136000
     51 H3B         -0.4250     1.1090    -1.0430 ha         1 SLD       0.117000
     52 H4B          1.2060     2.9950    -0.6590 hc         1 SLD       0.052200
     53 H4BA         1.0320     2.8020     1.0780 hc         1 SLD       0.052200
     54 H5B          2.0190     0.5160     0.9210 hc         1 SLD       0.047700
     55 H5BA         2.1310     0.6680    -0.8270 hc         1 SLD       0.047700
     56 HAS          3.6610     2.6170    -0.5720 h1         1 SLD       0.054700
     57 HASA         3.5550     2.4850     1.1770 h1         1 SLD       0.054700
     58 HN5S         4.3410    -0.0380     0.3850 hn         1 SLD       0.318500
     59 H9S          6.8800    -0.2870     1.1560 hc         1 SLD       0.101200
     60 H9SA         6.4160    -0.7810    -0.4380 hc         1 SLD       0.101200
     61 H8S          8.3090     1.4510    -0.6430 ha         1 SLD       0.160000
     62 HN2S        10.3940    -3.4810    -0.1060 hn         1 SLD       0.339500
     63 H7S         11.6360     1.7590    -1.7580 hc         1 SLD       0.069033
     64 H7SA         9.9190     1.8150    -2.1780 hc         1 SLD       0.069033
     65 H7SB        10.4310     2.2060    -0.5440 hc         1 SLD       0.069033
@<TRIPOS>BOND
     1     1     2 ar  
     2     1     3 ar  
     3     1    38 1   
     4     2     4 1   
     5     2     5 ar  
     6     3    17 ar  
     7     3    39 1   
     8     4     6 1   
     9     4     7 1   
    10     5    16 ar  
    11     5    40 1   
    12     6     8 1   
    13     6    41 1   
    14     6    42 1   
    15     7    10 1   
    16     7    15 2   
    17     8     9 1   
    18     8    10 1   
    19     8    43 1   
    20     9    11 1   
    21     9    44 1   
    22     9    45 1   
    23    11    12 1   
    24    11    46 1   
    25    12    13 1   
    26    12    14 2   
    27    13    47 1   
    28    13    48 1   
    29    13    49 1   
    30    16    17 ar  
    31    16    18 1   
    32    17    19 1   
    33    19    20 2   
    34    19    50 1   
    35    20    21 1   
    36    20    51 1   
    37    21    22 1   
    38    21    52 1   
    39    21    53 1   
    40    22    23 1   
    41    22    54 1   
    42    22    55 1   
    43    23    24 1   
    44    23    56 1   
    45    23    57 1   
    46    24    25 1   
    47    24    58 1   
    48    25    26 1   
    49    25    27 2   
    50    26    28 1   
    51    26    59 1   
    52    26    60 1   
    53    28    37 2   
    54    28    61 1   
    55    29    30 2   
    56    29    31 1   
    57    29    37 1   
    58    31    32 1   
    59    31    62 1   
    60    32    33 2   
    61    32    34 1   
    62    34    35 2   
    63    35    36 1   
    64    35    37 1   
    65    36    63 1   
    66    36    64 1   
    67    36    65 1   
@<TRIPOS>SUBSTRUCTURE
     1 SLD         1 TEMP              0 ****  ****    0 ROOT
