@<TRIPOS>MOLECULE
SLD
   65    67     1     0     0
SMALL
No Charge or Current Charge


@<TRIPOS>ATOM
      1 C1          -4.0620     0.1400    -1.1100 ca         1 SLD      -0.179000
      2 C2          -5.0240     0.0790    -0.0820 ca         1 SLD       0.027000
      3 C3          -2.7830     0.6770    -0.8810 ca         1 SLD      -0.053000
      4 N1          -6.2670    -0.6120    -0.3200 n          1 SLD      -0.258400
      5 C4          -4.6280     0.4610     1.2150 ca         1 SLD      -0.176000
      6 C5          -6.9490    -0.5650    -1.6190 c5         1 SLD       0.066000
      7 C6          -6.9550    -1.4210     0.5940 c          1 SLD       0.699100
      8 C7          -8.3410    -1.1300    -1.2200 c5         1 SLD       0.129300
      9 C8          -9.3990    -0.0220    -0.9670 c3         1 SLD       0.090000
     10 O1          -8.1110    -1.8530     0.0150 os         1 SLD      -0.408100
     11 N2         -10.6980    -0.5150    -0.4850 ns         1 SLD      -0.501900
     12 C9         -11.5820    -1.2540    -1.2350 c          1 SLD       0.603100
     13 C10        -12.8430    -1.6850    -0.5000 c3         1 SLD      -0.178100
     14 O2         -11.3720    -1.5380    -2.4050 o          1 SLD      -0.611100
     15 O3          -6.5910    -1.7350     1.7170 o          1 SLD      -0.510000
     16 C11         -3.3530     0.9990     1.4490 ca         1 SLD       0.207000
     17 C12         -2.4160     1.1300     0.4030 ca         1 SLD      -0.110800
     18 F1          -3.0350     1.3940     2.7040 f          1 SLD      -0.174000
     19 C2B         -1.0570     1.6990     0.6660 ce         1 SLD      -0.148200
     20 C3B         -0.2280     2.2180    -0.2670 c2         1 SLD      -0.211200
     21 C4B          1.1440     2.7960     0.0120 c3         1 SLD      -0.040200
     22 C5B          2.2210     1.6990     0.1410 c3         1 SLD      -0.093400
     23 CAS          3.6260     2.2670     0.4200 c3         1 SLD       0.102000
     24 N5S          4.6240     1.2030     0.5360 ns         1 SLD      -0.502900
     25 C0S          5.9640     1.4200     0.7550 c          1 SLD       0.599100
     26 C9S          6.8300     0.1620     0.8300 c3         1 SLD      -0.160200
     27 O2S          6.4330     2.5440     0.8630 o          1 SLD      -0.608100
     28 C8S          7.6450    -0.0620    -0.4400 c2         1 SLD      -0.032200
     29 C1S          9.0550    -1.8890     0.4330 c          1 SLD       0.588200
     30 O1S          8.2330    -2.3600     1.1990 o          1 SLD      -0.539000
     31 N2S         10.2820    -2.4390     0.3230 ns         1 SLD      -0.488500
     32 C3S         11.2910    -2.0690    -0.4900 c          1 SLD       0.706400
     33 O3S         12.3510    -2.6650    -0.4830 o          1 SLD      -0.486000
     34 N4S         11.0680    -1.0060    -1.3140 nc         1 SLD      -0.642100
     35 C5S          9.9280    -0.3440    -1.3350 cd         1 SLD       0.566600
     36 C7S          9.8570     0.8100    -2.2980 c3         1 SLD      -0.154400
     37 C6S          8.8530    -0.7300    -0.4640 cd         1 SLD      -0.351800
     38 H1          -4.2970    -0.2290    -2.1050 ha         1 SLD       0.118000
     39 H3          -2.0760     0.7140    -1.7050 ha         1 SLD       0.117000
     40 H4          -5.3130     0.3830     2.0530 ha         1 SLD       0.161000
     41 H5          -7.0040     0.4550    -2.0250 h1         1 SLD       0.069700
     42 H5A         -6.4510    -1.2120    -2.3520 h1         1 SLD       0.069700
     43 H7          -8.7280    -1.8200    -1.9830 h1         1 SLD       0.110700
     44 H8          -9.0020     0.6880    -0.2280 h1         1 SLD       0.065700
     45 H8A         -9.5610     0.5320    -1.9010 h1         1 SLD       0.065700
     46 HN2        -10.9580    -0.3360     0.4790 hn         1 SLD       0.325500
     47 H10        -13.3360    -0.7980    -0.0850 hc         1 SLD       0.063367
     48 H10A       -13.5220    -2.2680    -1.1320 hc         1 SLD       0.063367
     49 H10B       -12.5580    -2.2370     0.4030 hc         1 SLD       0.063367
     50 H2B         -0.7440     1.6910     1.7120 ha         1 SLD       0.186000
     51 H3B         -0.5160     2.2630    -1.3180 ha         1 SLD       0.167000
     52 H4B          1.4270     3.4860    -0.7940 hc         1 SLD       0.052200
     53 H4BA         1.1200     3.3900     0.9340 hc         1 SLD       0.052200
     54 H5B          1.9420     1.0140     0.9510 hc         1 SLD       0.047700
     55 H5BA         2.2470     1.1110    -0.7850 hc         1 SLD       0.047700
     56 HAS          3.9190     2.9410    -0.3960 h1         1 SLD       0.054700
     57 HASA         3.6110     2.8430     1.3550 h1         1 SLD       0.054700
     58 HN5S         4.3200     0.2400     0.4490 hn         1 SLD       0.318500
     59 H9S          7.5070     0.2790     1.6830 hc         1 SLD       0.101200
     60 H9SA         6.1820    -0.7070     0.9940 hc         1 SLD       0.101200
     61 H8S          7.4470     0.7230    -1.1770 ha         1 SLD       0.210000
     62 HN2S        10.4670    -3.2320     0.9150 hn         1 SLD       0.339500
     63 H7S         10.8030     0.9530    -2.8350 hc         1 SLD       0.069033
     64 H7SA         9.0760     0.6420    -3.0470 hc         1 SLD       0.069033
     65 H7SB         9.6340     1.7430    -1.7700 hc         1 SLD       0.069033
@<TRIPOS>BOND
     1     1     2 ar  
     2     1     3 ar  
     3     1    38 1   
     4     2     4 1   
     5     2     5 ar  
     6     3    17 ar  
     7     3    39 1   
     8     4     6 1   
     9     4     7 1   
    10     5    16 ar  
    11     5    40 1   
    12     6     8 1   
    13     6    41 1   
    14     6    42 1   
    15     7    10 1   
    16     7    15 2   
    17     8     9 1   
    18     8    10 1   
    19     8    43 1   
    20     9    11 1   
    21     9    44 1   
    22     9    45 1   
    23    11    12 1   
    24    11    46 1   
    25    12    13 1   
    26    12    14 2   
    27    13    47 1   
    28    13    48 1   
    29    13    49 1   
    30    16    17 ar  
    31    16    18 1   
    32    17    19 1   
    33    19    20 2   
    34    19    50 1   
    35    20    21 1   
    36    20    51 1   
    37    21    22 1   
    38    21    52 1   
    39    21    53 1   
    40    22    23 1   
    41    22    54 1   
    42    22    55 1   
    43    23    24 1   
    44    23    56 1   
    45    23    57 1   
    46    24    25 1   
    47    24    58 1   
    48    25    26 1   
    49    25    27 2   
    50    26    28 1   
    51    26    59 1   
    52    26    60 1   
    53    28    37 2   
    54    28    61 1   
    55    29    30 2   
    56    29    31 1   
    57    29    37 1   
    58    31    32 1   
    59    31    62 1   
    60    32    33 2   
    61    32    34 1   
    62    34    35 2   
    63    35    36 1   
    64    35    37 1   
    65    36    63 1   
    66    36    64 1   
    67    36    65 1   
@<TRIPOS>SUBSTRUCTURE
     1 SLD         1 TEMP              0 ****  ****    0 ROOT
