@<TRIPOS>MOLECULE
SLF
  135   135     1     0     0
SMALL
bcc


@<TRIPOS>ATOM
      1 C35          9.3110    -0.1300    17.7030 c3         1 SLF      -0.088100
      2 C34          8.4710     0.6410    16.6940 c3         1 SLF      -0.075400
      3 C33          8.2030    -0.1520    15.4210 c3         1 SLF      -0.075400
      4 C32          7.3620     0.6060    14.4020 c3         1 SLF      -0.074400
      5 C31          7.0890    -0.1910    13.1330 c3         1 SLF      -0.074400
      6 C30          6.2460     0.5680    12.1160 c3         1 SLF      -0.074400
      7 C29          5.9670    -0.2290    10.8470 c3         1 SLF      -0.074400
      8 C28          5.1220     0.5340     9.8340 c3         1 SLF      -0.074400
      9 C27          4.8320    -0.2600     8.5660 c3         1 SLF      -0.074400
     10 C26          3.9850     0.5100     7.5610 c3         1 SLF      -0.073400
     11 C25          3.6760    -0.2810     6.2950 c3         1 SLF      -0.075400
     12 C24          2.8260     0.4980     5.2990 c3         1 SLF      -0.072400
     13 C23          2.4840    -0.2920     4.0420 c3         1 SLF      -0.077400
     14 C22          1.6360     0.4990     3.0540 c3         1 SLF      -0.066400
     15 C21          1.2330    -0.3020     1.8240 c3         1 SLF      -0.089400
     16 C20          0.4140     0.5140     0.8320 c3         1 SLF      -0.056400
     17 C19         -0.0430    -0.3260    -0.3540 c3         1 SLF      -0.165400
     18 C18         -0.7470     0.4880    -1.4210 c          1 SLF       0.670100
     19 O2          -1.5410     1.3770    -1.1480 o          1 SLF      -0.632100
     20 N           -0.4260     0.1360    -2.6800 ns         1 SLF      -0.587900
     21 C1          -0.9050     0.7700    -3.8860 c3         1 SLF       0.054700
     22 C            0.2150     1.5700    -4.5490 c3         1 SLF       0.131400
     23 O            1.3330     0.7510    -4.8560 os         1 SLF      -0.399600
     24 C36          2.3620     0.7570    -3.9370 c6         1 SLF       0.309900
     25 O8           3.3570     1.6350    -4.3860 os         1 SLF      -0.413600
     26 C40          4.3980     1.7890    -3.4400 c6         1 SLF       0.158100
     27 C41          5.3560     2.8470    -3.9420 c3         1 SLF       0.145400
     28 O9           4.6890     4.0870    -3.9590 oh         1 SLF      -0.596800
     29 C39          5.0940     0.4610    -3.1630 c6         1 SLF       0.096100
     30 O7           5.7900     0.0590    -4.3170 oh         1 SLF      -0.605800
     31 C38          4.0470    -0.5760    -2.7500 c6         1 SLF       0.168100
     32 O5           4.6410    -1.8560    -2.6200 os         1 SLF      -0.564500
     33 S            4.9850    -2.3860    -1.0920 s6         1 SLF       1.493300
     34 O6           3.7060    -2.4010    -0.3820 o          1 SLF      -0.703200
     35 O12          5.5380    -3.7040    -1.3950 o          1 SLF      -0.703200
     36 O13          5.9500    -1.4240    -0.5550 o          1 SLF      -0.703200
     37 C37          2.9410    -0.6540    -3.7910 c6         1 SLF       0.114100
     38 O4           1.9600    -1.5680    -3.3600 oh         1 SLF      -0.585800
     39 C2          -1.5190    -0.3040    -4.8160 c3         1 SLF       0.171300
     40 O1          -1.8340     0.2280    -6.0750 oh         1 SLF      -0.584800
     41 C3          -2.6870    -0.9670    -4.1420 c2         1 SLF      -0.193200
     42 C4          -3.8990    -1.1200    -4.6670 c2         1 SLF      -0.172200
     43 C5          -5.0560    -1.7410    -3.9500 c3         1 SLF      -0.040200
     44 C6          -6.2250    -0.7690    -3.7840 c3         1 SLF      -0.073400
     45 C7          -7.4130    -1.3960    -3.0650 c3         1 SLF      -0.075400
     46 C8          -8.5920    -0.4440    -2.9080 c3         1 SLF      -0.074400
     47 C9          -9.7680    -1.0680    -2.1670 c3         1 SLF      -0.074400
     48 C10        -10.9560    -0.1260    -2.0140 c3         1 SLF      -0.074400
     49 C11        -12.1230    -0.7550    -1.2630 c3         1 SLF      -0.074400
     50 C12        -13.3180     0.1780    -1.1080 c3         1 SLF      -0.074400
     51 C13        -14.4790    -0.4580    -0.3530 c3         1 SLF      -0.074400
     52 C14        -15.6790     0.4670    -0.1960 c3         1 SLF      -0.074400
     53 C15        -16.8360    -0.1750     0.5590 c3         1 SLF      -0.076400
     54 C16        -18.0420     0.7430     0.7150 c3         1 SLF      -0.075400
     55 C17        -19.1900     0.0850     1.4680 c3         1 SLF      -0.088100
     56 H351         9.4840     0.4490    18.6110 hc         1 SLF       0.030033
     57 H352         8.8200    -1.0610    17.9920 hc         1 SLF       0.030033
     58 H353        10.2860    -0.3900    17.2860 hc         1 SLF       0.030033
     59 H341         7.5180     0.9260    17.1500 hc         1 SLF       0.035700
     60 H342         8.9750     1.5780    16.4370 hc         1 SLF       0.035700
     61 H331         9.1570    -0.4380    14.9640 hc         1 SLF       0.037200
     62 H332         7.7000    -1.0910    15.6800 hc         1 SLF       0.037200
     63 H321         6.4090     0.8950    14.8610 hc         1 SLF       0.036200
     64 H322         7.8660     1.5430    14.1410 hc         1 SLF       0.036200
     65 H311         8.0410    -0.4800    12.6730 hc         1 SLF       0.037200
     66 H312         6.5840    -1.1280    13.3950 hc         1 SLF       0.037200
     67 H301         5.2960     0.8590    12.5770 hc         1 SLF       0.035700
     68 H302         6.7520     1.5030    11.8520 hc         1 SLF       0.035700
     69 H291         6.9160    -0.5200    10.3840 hc         1 SLF       0.037700
     70 H292         5.4600    -1.1640    11.1100 hc         1 SLF       0.037700
     71 H281         4.1760     0.8290    10.3010 hc         1 SLF       0.034700
     72 H282         5.6310     1.4680     9.5700 hc         1 SLF       0.034700
     73 H271         5.7770    -0.5540     8.0970 hc         1 SLF       0.038700
     74 H272         4.3230    -1.1930     8.8310 hc         1 SLF       0.038700
     75 H261         3.0450     0.8120     8.0360 hc         1 SLF       0.033700
     76 H262         4.4980     1.4400     7.2920 hc         1 SLF       0.033700
     77 H251         4.6140    -0.5840     5.8160 hc         1 SLF       0.040700
     78 H252         3.1610    -1.2090     6.5640 hc         1 SLF       0.040700
     79 H241         1.8990     0.8170     5.7870 hc         1 SLF       0.030700
     80 H242         3.3500     1.4190     5.0190 hc         1 SLF       0.030700
     81 H231         3.4080    -0.6180     3.5510 hc         1 SLF       0.047200
     82 H232         1.9530    -1.2080     4.3240 hc         1 SLF       0.047200
     83 H221         0.7340     0.8600     3.5600 hc         1 SLF       0.027200
     84 H222         2.1860     1.3950     2.7440 hc         1 SLF       0.027200
     85 H211         2.1260    -0.6930     1.3230 hc         1 SLF       0.060700
     86 H212         0.6560    -1.1790     2.1380 hc         1 SLF       0.060700
     87 H201        -0.4560     0.9440     1.3350 hc         1 SLF       0.039200
     88 H202         1.0140     1.3590     0.4790 hc         1 SLF       0.039200
     89 H191         0.8110    -0.8630    -0.7760 hc         1 SLF       0.075700
     90 H192        -0.7400    -1.0970    -0.0070 hc         1 SLF       0.075700
     91 HN           0.2800    -0.5810    -2.7980 hn         1 SLF       0.346500
     92 H1          -1.6910     1.4800    -3.6160 h1         1 SLF       0.076700
     93 H1A         -0.1360     2.0170    -5.4790 h1         1 SLF       0.058200
     94 H2A          0.5050     2.3920    -3.8850 h1         1 SLF       0.058200
     95 H36          2.0000     1.0980    -2.9490 h2         1 SLF       0.027700
     96 H40          3.9790     2.1310    -2.4790 h1         1 SLF       0.045700
     97 H411         6.2220     2.8610    -3.2670 h1         1 SLF       0.037200
     98 H412         5.7260     2.5710    -4.9360 h1         1 SLF       0.037200
     99 HO9          5.3080     4.7500    -4.2780 ho         1 SLF       0.394000
    100 H39          5.7800     0.6140    -2.3190 h1         1 SLF       0.072700
    101 HO7          6.1930    -0.7970    -4.1390 ho         1 SLF       0.430000
    102 H38          3.6010    -0.2550    -1.7990 h1         1 SLF       0.056700
    103 H37          3.3620    -0.9590    -4.7570 h1         1 SLF       0.075700
    104 HO4          1.6060    -2.0240    -4.1290 ho         1 SLF       0.406000
    105 H2          -0.7470    -1.0620    -5.0010 h1         1 SLF       0.090700
    106 HO1         -2.5470     0.8680    -5.9680 ho         1 SLF       0.396000
    107 H3          -2.4990    -1.3400    -3.1400 ha         1 SLF       0.136000
    108 H4          -4.1040    -0.7680    -5.6750 ha         1 SLF       0.116000
    109 H51         -5.4050    -2.6150    -4.5110 hc         1 SLF       0.043700
    110 H52         -4.7370    -2.1050    -2.9690 hc         1 SLF       0.043700
    111 H61         -5.8860     0.1120    -3.2300 hc         1 SLF       0.040200
    112 H62         -6.5410    -0.4090    -4.7680 hc         1 SLF       0.040200
    113 H71         -7.7360    -2.2890    -3.6100 hc         1 SLF       0.037200
    114 H72         -7.0940    -1.7430    -2.0760 hc         1 SLF       0.037200
    115 H81         -8.2660     0.4570    -2.3770 hc         1 SLF       0.037700
    116 H82         -8.9220    -0.1090    -3.8980 hc         1 SLF       0.037700
    117 H91        -10.0880    -1.9740    -2.6940 hc         1 SLF       0.036700
    118 H92         -9.4360    -1.3960    -1.1760 hc         1 SLF       0.036700
    119 H101       -10.6370     0.7830    -1.4920 hc         1 SLF       0.037200
    120 H102       -11.2940     0.1970    -3.0050 hc         1 SLF       0.037200
    121 H111       -12.4390    -1.6660    -1.7830 hc         1 SLF       0.036700
    122 H112       -11.7840    -1.0760    -0.2720 hc         1 SLF       0.036700
    123 H121       -13.0040     1.0900    -0.5880 hc         1 SLF       0.036700
    124 H122       -13.6610     0.4970    -2.0990 hc         1 SLF       0.036700
    125 H131       -14.7900    -1.3720    -0.8720 hc         1 SLF       0.037200
    126 H132       -14.1340    -0.7760     0.6380 hc         1 SLF       0.037200
    127 H141       -15.3700     1.3810     0.3240 hc         1 SLF       0.036200
    128 H142       -16.0240     0.7850    -1.1860 hc         1 SLF       0.036200
    129 H151       -17.1420    -1.0910     0.0400 hc         1 SLF       0.037200
    130 H152       -16.4910    -0.4910     1.5500 hc         1 SLF       0.037200
    131 H161       -17.7360     1.6560     1.2360 hc         1 SLF       0.036200
    132 H162       -18.3860     1.0600    -0.2740 hc         1 SLF       0.036200
    133 H171       -20.0490     0.7510     1.5570 hc         1 SLF       0.030367
    134 H172       -19.5240    -0.8200     0.9570 hc         1 SLF       0.030367
    135 H173       -18.8870    -0.2020     2.4760 hc         1 SLF       0.030367
@<TRIPOS>BOND
     1     1     2 1   
     2     1    56 1   
     3     1    57 1   
     4     1    58 1   
     5     2     3 1   
     6     2    59 1   
     7     2    60 1   
     8     3     4 1   
     9     3    61 1   
    10     3    62 1   
    11     4     5 1   
    12     4    63 1   
    13     4    64 1   
    14     5     6 1   
    15     5    65 1   
    16     5    66 1   
    17     6     7 1   
    18     6    67 1   
    19     6    68 1   
    20     7     8 1   
    21     7    69 1   
    22     7    70 1   
    23     8     9 1   
    24     8    71 1   
    25     8    72 1   
    26     9    10 1   
    27     9    73 1   
    28     9    74 1   
    29    10    11 1   
    30    10    75 1   
    31    10    76 1   
    32    11    12 1   
    33    11    77 1   
    34    11    78 1   
    35    12    13 1   
    36    12    79 1   
    37    12    80 1   
    38    13    14 1   
    39    13    81 1   
    40    13    82 1   
    41    14    15 1   
    42    14    83 1   
    43    14    84 1   
    44    15    16 1   
    45    15    85 1   
    46    15    86 1   
    47    16    17 1   
    48    16    87 1   
    49    16    88 1   
    50    17    18 1   
    51    17    89 1   
    52    17    90 1   
    53    18    19 2   
    54    18    20 1   
    55    20    21 1   
    56    20    91 1   
    57    21    22 1   
    58    21    39 1   
    59    21    92 1   
    60    22    23 1   
    61    22    93 1   
    62    22    94 1   
    63    23    24 1   
    64    24    25 1   
    65    24    37 1   
    66    24    95 1   
    67    25    26 1   
    68    26    27 1   
    69    26    29 1   
    70    26    96 1   
    71    27    28 1   
    72    27    97 1   
    73    27    98 1   
    74    28    99 1   
    75    29    30 1   
    76    29    31 1   
    77    29   100 1   
    78    30   101 1   
    79    31    32 1   
    80    31    37 1   
    81    31   102 1   
    82    32    33 1   
    83    33    34 1   
    84    33    35 1   
    85    33    36 1   
    86    37    38 1   
    87    37   103 1   
    88    38   104 1   
    89    39    40 1   
    90    39    41 1   
    91    39   105 1   
    92    40   106 1   
    93    41    42 2   
    94    41   107 1   
    95    42    43 1   
    96    42   108 1   
    97    43    44 1   
    98    43   109 1   
    99    43   110 1   
   100    44    45 1   
   101    44   111 1   
   102    44   112 1   
   103    45    46 1   
   104    45   113 1   
   105    45   114 1   
   106    46    47 1   
   107    46   115 1   
   108    46   116 1   
   109    47    48 1   
   110    47   117 1   
   111    47   118 1   
   112    48    49 1   
   113    48   119 1   
   114    48   120 1   
   115    49    50 1   
   116    49   121 1   
   117    49   122 1   
   118    50    51 1   
   119    50   123 1   
   120    50   124 1   
   121    51    52 1   
   122    51   125 1   
   123    51   126 1   
   124    52    53 1   
   125    52   127 1   
   126    52   128 1   
   127    53    54 1   
   128    53   129 1   
   129    53   130 1   
   130    54    55 1   
   131    54   131 1   
   132    54   132 1   
   133    55   133 1   
   134    55   134 1   
   135    55   135 1   
@<TRIPOS>SUBSTRUCTURE
     1 SLF         1 TEMP              0 ****  ****    0 ROOT
