@<TRIPOS>MOLECULE
SLF
  135   135     1     0     0
SMALL
No Charge or Current Charge


@<TRIPOS>ATOM
      1 C35         13.2690    -0.7890    16.0880 c3         1 SLF      -0.088100
      2 C34         12.8820    -0.1130    14.7580 c3         1 SLF      -0.075400
      3 C33         11.5150    -0.5860    14.2160 c3         1 SLF      -0.075400
      4 C32         11.1250     0.0940    12.8850 c3         1 SLF      -0.074400
      5 C31          9.7550    -0.3750    12.3450 c3         1 SLF      -0.074400
      6 C30          9.3630     0.3120    11.0190 c3         1 SLF      -0.074400
      7 C29          7.9880    -0.1450    10.4830 c3         1 SLF      -0.074400
      8 C28          7.5930     0.5530     9.1630 c3         1 SLF      -0.074400
      9 C27          6.2110     0.1100     8.6350 c3         1 SLF      -0.074400
     10 C26          5.8100     0.8200     7.3230 c3         1 SLF      -0.073400
     11 C25          4.4190     0.3950     6.8040 c3         1 SLF      -0.075400
     12 C24          4.0150     1.1160     5.5000 c3         1 SLF      -0.072400
     13 C23          2.6160     0.7070     4.9900 c3         1 SLF      -0.077400
     14 C22          2.2090     1.4390     3.6930 c3         1 SLF      -0.066400
     15 C21          0.8030     1.0440     3.1890 c3         1 SLF      -0.089400
     16 C20          0.3920     1.8030     1.9110 c3         1 SLF      -0.056400
     17 C19         -1.0020     1.3940     1.3800 c3         1 SLF      -0.165400
     18 C18         -1.3270     2.1210     0.0740 c          1 SLF       0.603100
     19 O2          -1.6540     3.2990     0.0380 o          1 SLF      -0.632100
     20 N           -1.2360     1.3450    -1.0550 ns         1 SLF      -0.520900
     21 C1          -1.3760     1.8280    -2.4430 c3         1 SLF       0.054700
     22 C            0.0130     1.9810    -3.1350 c3         1 SLF       0.154600
     23 O            0.7400     0.7380    -3.0200 os         1 SLF      -0.446000
     24 C36          1.6110     0.5960    -1.8780 c6         1 SLF       0.356300
     25 O8           2.9380     0.9760    -2.2720 os         1 SLF      -0.460000
     26 C40          3.8800     0.9500    -1.1710 c6         1 SLF       0.181300
     27 C41          5.2450     1.5430    -1.6550 c3         1 SLF       0.168600
     28 O9           5.1440     2.9050    -2.1240 oh         1 SLF      -0.719000
     29 C39          4.0200    -0.5010    -0.6030 c6         1 SLF       0.119300
     30 O7           4.6110    -1.4300    -1.5380 oh         1 SLF      -0.728000
     31 C38          2.6260    -1.0480    -0.1690 c6         1 SLF       0.191300
     32 O5           2.7820    -2.4560     0.1350 os         1 SLF      -0.587700
     33 S            2.0500    -3.0560     1.4720 s6         1 SLF       1.493300
     34 O6           0.6370    -2.7360     1.2360 o          1 SLF      -0.703200
     35 O12          2.3710    -4.4880     1.4390 o          1 SLF      -0.703200
     36 O13          2.6650    -2.3120     2.5760 o          1 SLF      -0.703200
     37 C37          1.5840    -0.8690    -1.3310 c6         1 SLF       0.137300
     38 O4           0.2490    -1.2580    -0.9080 oh         1 SLF      -0.708000
     39 C2          -2.3500     0.9200    -3.2500 c3         1 SLF       0.194500
     40 O1          -2.6230     1.4960    -4.5290 oh         1 SLF      -0.647000
     41 C3          -3.6850     0.7250    -2.5630 c2         1 SLF      -0.243200
     42 C4          -4.4800    -0.3500    -2.6980 c2         1 SLF      -0.222200
     43 C5          -5.8090    -0.5420    -1.9990 c3         1 SLF      -0.040200
     44 C6          -6.9940    -0.5070    -2.9870 c3         1 SLF      -0.073400
     45 C7          -8.3650    -0.6910    -2.2990 c3         1 SLF      -0.075400
     46 C8          -9.5500    -0.6350    -3.2880 c3         1 SLF      -0.074400
     47 C9         -10.9210    -0.8090    -2.5990 c3         1 SLF      -0.074400
     48 C10        -12.1070    -0.7350    -3.5860 c3         1 SLF      -0.074400
     49 C11        -13.4790    -0.9000    -2.8960 c3         1 SLF      -0.074400
     50 C12        -14.6640    -0.8080    -3.8820 c3         1 SLF      -0.074400
     51 C13        -16.0370    -0.9640    -3.1920 c3         1 SLF      -0.074400
     52 C14        -17.2230    -0.8570    -4.1760 c3         1 SLF      -0.074400
     53 C15        -18.5970    -1.0090    -3.4850 c3         1 SLF      -0.076400
     54 C16        -19.7830    -0.8940    -4.4670 c3         1 SLF      -0.075400
     55 C17        -21.1530    -1.0470    -3.7790 c3         1 SLF      -0.088100
     56 H351        14.2430    -0.4220    16.4340 hc         1 SLF       0.030033
     57 H352        12.5250    -0.5710    16.8650 hc         1 SLF       0.030033
     58 H353        13.3350    -1.8770    15.9660 hc         1 SLF       0.030033
     59 H341        12.8590     0.9740    14.9050 hc         1 SLF       0.035700
     60 H342        13.6610    -0.3200    14.0130 hc         1 SLF       0.035700
     61 H331        11.5420    -1.6740    14.0710 hc         1 SLF       0.037200
     62 H332        10.7400    -0.3820    14.9660 hc         1 SLF       0.037200
     63 H321        11.1020     1.1810    13.0300 hc         1 SLF       0.036200
     64 H322        11.8980    -0.1130    12.1340 hc         1 SLF       0.036200
     65 H311         9.7790    -1.4620    12.1960 hc         1 SLF       0.037200
     66 H312         8.9830    -0.1720    13.0980 hc         1 SLF       0.037200
     67 H301         9.3470     1.3990    11.1690 hc         1 SLF       0.035700
     68 H302        10.1320     0.1040    10.2640 hc         1 SLF       0.035700
     69 H291         8.0050    -1.2310    10.3260 hc         1 SLF       0.037700
     70 H292         7.2210     0.0580    11.2410 hc         1 SLF       0.037700
     71 H281         7.5870     1.6390     9.3190 hc         1 SLF       0.034700
     72 H282         8.3550     0.3420     8.4020 hc         1 SLF       0.034700
     73 H271         6.2180    -0.9750     8.4700 hc         1 SLF       0.038700
     74 H272         5.4510     0.3130     9.4000 hc         1 SLF       0.038700
     75 H261         5.8160     1.9060     7.4860 hc         1 SLF       0.033700
     76 H262         6.5630     0.6080     6.5530 hc         1 SLF       0.033700
     77 H251         4.4140    -0.6890     6.6340 hc         1 SLF       0.040700
     78 H252         3.6690     0.6020     7.5770 hc         1 SLF       0.040700
     79 H241         4.0330     2.2000     5.6680 hc         1 SLF       0.030700
     80 H242         4.7590     0.9000     4.7230 hc         1 SLF       0.030700
     81 H231         2.5980    -0.3760     4.8140 hc         1 SLF       0.047200
     82 H232         1.8730     0.9160     5.7700 hc         1 SLF       0.047200
     83 H221         2.2360     2.5220     3.8690 hc         1 SLF       0.027200
     84 H222         2.9460     1.2220     2.9100 hc         1 SLF       0.027200
     85 H211         0.7810    -0.0360     2.9930 hc         1 SLF       0.060700
     86 H212         0.0660     1.2400     3.9780 hc         1 SLF       0.060700
     87 H201         0.3980     2.8820     2.1140 hc         1 SLF       0.039200
     88 H202         1.1420     1.6240     1.1320 hc         1 SLF       0.039200
     89 H191        -1.0100     0.3100     1.2160 hc         1 SLF       0.075700
     90 H192        -1.7550     1.6630     2.1290 hc         1 SLF       0.075700
     91 HN          -0.9340     0.3820    -0.9230 hn         1 SLF       0.346500
     92 H1          -1.8300     2.8280    -2.4150 h1         1 SLF       0.076700
     93 H1A         -0.1330     2.2410    -4.1910 h1         1 SLF       0.058200
     94 H2A          0.5700     2.8060    -2.6710 h1         1 SLF       0.058200
     95 H36          1.2770     1.2710    -1.0770 h2         1 SLF       0.027700
     96 H40          3.5010     1.6050    -0.3720 h1         1 SLF       0.045700
     97 H411         5.9550     1.4880    -0.8190 h1         1 SLF       0.037200
     98 H412         5.6370     0.9000    -2.4550 h1         1 SLF       0.037200
     99 HO9          6.0250     3.1490    -2.4910 ho         1 SLF       0.493000
    100 H39          4.6460    -0.4460     0.3010 h1         1 SLF       0.072700
    101 HO7          4.2700    -2.3100    -1.2370 ho         1 SLF       0.529000
    102 H38          2.2940    -0.4900     0.7200 h1         1 SLF       0.056700
    103 H37          1.9030    -1.5200    -2.1590 h1         1 SLF       0.075700
    104 HO4          0.3650    -1.8940    -0.1410 ho         1 SLF       0.505000
    105 H2          -1.8720    -0.0640    -3.3710 h1         1 SLF       0.090700
    106 HO1         -3.4270     1.0420    -4.8620 ho         1 SLF       0.435000
    107 H3          -3.9810     1.5540    -1.9170 ha         1 SLF       0.186000
    108 H4          -4.1840    -1.1830    -3.3400 ha         1 SLF       0.166000
    109 H51         -5.8110    -1.5000    -1.4640 hc         1 SLF       0.043700
    110 H52         -5.9560     0.2380    -1.2410 hc         1 SLF       0.043700
    111 H61         -6.9840     0.4510    -3.5220 hc         1 SLF       0.040200
    112 H62         -6.8590    -1.2950    -3.7390 hc         1 SLF       0.040200
    113 H71         -8.3780    -1.6540    -1.7730 hc         1 SLF       0.037200
    114 H72         -8.4930     0.0910    -1.5390 hc         1 SLF       0.037200
    115 H81         -9.5320     0.3270    -3.8150 hc         1 SLF       0.037700
    116 H82         -9.4250    -1.4180    -4.0460 hc         1 SLF       0.037700
    117 H91        -10.9440    -1.7760    -2.0800 hc         1 SLF       0.036700
    118 H92        -11.0410    -0.0320    -1.8330 hc         1 SLF       0.036700
    119 H101       -12.0800     0.2310    -4.1070 hc         1 SLF       0.037200
    120 H102       -11.9900    -1.5150    -4.3490 hc         1 SLF       0.037200
    121 H111       -13.5110    -1.8690    -2.3830 hc         1 SLF       0.036700
    122 H112       -13.5910    -0.1250    -2.1260 hc         1 SLF       0.036700
    123 H121       -14.6290     0.1610    -4.3980 hc         1 SLF       0.036700
    124 H122       -14.5560    -1.5850    -4.6500 hc         1 SLF       0.036700
    125 H131       -16.0770    -1.9360    -2.6830 hc         1 SLF       0.037200
    126 H132       -16.1410    -0.1920    -2.4180 hc         1 SLF       0.037200
    127 H141       -17.1820     0.1140    -4.6860 hc         1 SLF       0.036200
    128 H142       -17.1210    -1.6290    -4.9490 hc         1 SLF       0.036200
    129 H151       -18.6400    -1.9820    -2.9800 hc         1 SLF       0.037200
    130 H152       -18.6970    -0.2390    -2.7090 hc         1 SLF       0.037200
    131 H161       -19.7440     0.0800    -4.9720 hc         1 SLF       0.036200
    132 H162       -19.6870    -1.6620    -5.2450 hc         1 SLF       0.036200
    133 H171       -21.9620    -0.9570    -4.5140 hc         1 SLF       0.030367
    134 H172       -21.2370    -2.0270    -3.2940 hc         1 SLF       0.030367
    135 H173       -21.2940    -0.2700    -3.0170 hc         1 SLF       0.030367
@<TRIPOS>BOND
     1     1     2 1   
     2     1    56 1   
     3     1    57 1   
     4     1    58 1   
     5     2     3 1   
     6     2    59 1   
     7     2    60 1   
     8     3     4 1   
     9     3    61 1   
    10     3    62 1   
    11     4     5 1   
    12     4    63 1   
    13     4    64 1   
    14     5     6 1   
    15     5    65 1   
    16     5    66 1   
    17     6     7 1   
    18     6    67 1   
    19     6    68 1   
    20     7     8 1   
    21     7    69 1   
    22     7    70 1   
    23     8     9 1   
    24     8    71 1   
    25     8    72 1   
    26     9    10 1   
    27     9    73 1   
    28     9    74 1   
    29    10    11 1   
    30    10    75 1   
    31    10    76 1   
    32    11    12 1   
    33    11    77 1   
    34    11    78 1   
    35    12    13 1   
    36    12    79 1   
    37    12    80 1   
    38    13    14 1   
    39    13    81 1   
    40    13    82 1   
    41    14    15 1   
    42    14    83 1   
    43    14    84 1   
    44    15    16 1   
    45    15    85 1   
    46    15    86 1   
    47    16    17 1   
    48    16    87 1   
    49    16    88 1   
    50    17    18 1   
    51    17    89 1   
    52    17    90 1   
    53    18    19 2   
    54    18    20 1   
    55    20    21 1   
    56    20    91 1   
    57    21    22 1   
    58    21    39 1   
    59    21    92 1   
    60    22    23 1   
    61    22    93 1   
    62    22    94 1   
    63    23    24 1   
    64    24    25 1   
    65    24    37 1   
    66    24    95 1   
    67    25    26 1   
    68    26    27 1   
    69    26    29 1   
    70    26    96 1   
    71    27    28 1   
    72    27    97 1   
    73    27    98 1   
    74    28    99 1   
    75    29    30 1   
    76    29    31 1   
    77    29   100 1   
    78    30   101 1   
    79    31    32 1   
    80    31    37 1   
    81    31   102 1   
    82    32    33 1   
    83    33    34 1   
    84    33    35 1   
    85    33    36 1   
    86    37    38 1   
    87    37   103 1   
    88    38   104 1   
    89    39    40 1   
    90    39    41 1   
    91    39   105 1   
    92    40   106 1   
    93    41    42 2   
    94    41   107 1   
    95    42    43 1   
    96    42   108 1   
    97    43    44 1   
    98    43   109 1   
    99    43   110 1   
   100    44    45 1   
   101    44   111 1   
   102    44   112 1   
   103    45    46 1   
   104    45   113 1   
   105    45   114 1   
   106    46    47 1   
   107    46   115 1   
   108    46   116 1   
   109    47    48 1   
   110    47   117 1   
   111    47   118 1   
   112    48    49 1   
   113    48   119 1   
   114    48   120 1   
   115    49    50 1   
   116    49   121 1   
   117    49   122 1   
   118    50    51 1   
   119    50   123 1   
   120    50   124 1   
   121    51    52 1   
   122    51   125 1   
   123    51   126 1   
   124    52    53 1   
   125    52   127 1   
   126    52   128 1   
   127    53    54 1   
   128    53   129 1   
   129    53   130 1   
   130    54    55 1   
   131    54   131 1   
   132    54   132 1   
   133    55   133 1   
   134    55   134 1   
   135    55   135 1   
@<TRIPOS>SUBSTRUCTURE
     1 SLF         1 TEMP              0 ****  ****    0 ROOT
