@<TRIPOS>MOLECULE
SLG
   48    51     1     0     0
SMALL
abcg2


@<TRIPOS>ATOM
      1 C1           2.6310    33.7090    27.2750 c3         1 SLG       0.143300
      2 C2           3.3430    35.0440    27.2930 ca         1 SLG      -0.118300
      3 C3           3.0190    36.0130    28.2360 ca         1 SLG      -0.085000
      4 C7           4.3190    35.3400    26.3310 cp         1 SLG       0.033000
      5 C8           4.7180    34.3450    25.3080 cp         1 SLG      -0.104000
      6 C9           5.2900    33.1270    25.6680 ca         1 SLG      -0.123000
      7 C10          5.6420    32.2070    24.6970 ca         1 SLG      -0.091000
      8 C11          5.4790    32.4640    23.3350 ca         1 SLG      -0.096600
      9 C12          5.9430    31.4100    22.3290 c          1 SLG       0.720600
     10 C13          4.9120    33.6890    22.9980 ca         1 SLG       0.139000
     11 C14          4.5260    34.6150    23.9580 ca         1 SLG      -0.114000
     12 C15          1.1250    32.9570    29.0970 c          1 SLG       0.629300
     13 C16          2.2590    32.4540    29.9080 cc         1 SLG      -0.127300
     14 C19          5.3380    32.0460    31.7890 ca         1 SLG      -0.039000
     15 C20          5.5950    31.0370    32.6900 ca         1 SLG      -0.143000
     16 C21          4.6210    30.0570    32.9460 ca         1 SLG       0.145000
     17 C22          3.3880    30.0500    32.3350 ca         1 SLG      -0.123000
     18 CL1          5.0020    28.8020    34.0850 cl         1 SLG      -0.221000
     19 C23          3.1420    31.0810    31.4270 ca         1 SLG      -0.033200
     20 C18          4.0990    32.0780    31.1360 ca         1 SLG      -0.114800
     21 C17          3.5150    32.9400    30.1660 cd         1 SLG      -0.187200
     22 N1           2.0410    31.3410    30.6790 na         1 SLG      -0.189700
     23 O2          -0.0160    32.7030    29.4650 o          1 SLG      -0.621100
     24 N            1.3780    33.7030    28.0000 n          1 SLG      -0.390800
     25 C            0.2530    34.2980    27.3030 c3         1 SLG       0.081300
     26 C6           4.9230    36.5940    26.3170 ca         1 SLG      -0.144000
     27 C5           4.5640    37.5310    27.2640 ca         1 SLG       0.165000
     28 F            5.1470    38.7400    27.2360 f          1 SLG      -0.187000
     29 C4           3.6250    37.2610    28.2360 ca         1 SLG      -0.169000
     30 CL           4.5800    34.1010    21.3410 cl         1 SLG      -0.213000
     31 O1           6.5880    31.8250    21.3540 o          1 SLG      -0.698000
     32 O            5.6520    30.2370    22.6210 o          1 SLG      -0.698000
     33 H1           2.4180    33.4300    26.2380 h1         1 SLG       0.078200
     34 H2           3.2720    32.9190    27.6630 h1         1 SLG       0.078200
     35 H3           2.2650    35.8040    28.9840 ha         1 SLG       0.118000
     36 H4           5.4640    32.8970    26.7120 ha         1 SLG       0.096000
     37 H5           6.0710    31.2600    24.9980 ha         1 SLG       0.131000
     38 H6           4.0630    35.5450    23.6540 ha         1 SLG       0.108000
     39 H7           6.0880    32.8000    31.5900 ha         1 SLG       0.122000
     40 H8           6.5460    30.9930    33.2040 ha         1 SLG       0.125000
     41 H9           2.6490    29.2880    32.5450 ha         1 SLG       0.129000
     42 H10          3.9700    33.8210    29.7450 ha         1 SLG       0.220000
     43 H11          1.1820    30.8120    30.6870 hn         1 SLG       0.368000
     44 H12         -0.4730    34.7000    28.0050 h1         1 SLG       0.045700
     45 H13          0.6160    35.1180    26.6880 h1         1 SLG       0.045700
     46 H14         -0.2490    33.5760    26.6540 h1         1 SLG       0.045700
     47 H15          5.6730    36.8290    25.5720 ha         1 SLG       0.142000
     48 H16          3.3610    38.0080    28.9740 ha         1 SLG       0.123000
@<TRIPOS>BOND
     1     1     2 1   
     2     1    24 1   
     3     1    33 1   
     4     1    34 1   
     5     2     3 ar  
     6     2     4 ar  
     7     3    29 ar  
     8     3    35 1   
     9     4     5 1   
    10     4    26 ar  
    11     5     6 ar  
    12     5    11 ar  
    13     6     7 ar  
    14     6    36 1   
    15     7     8 ar  
    16     7    37 1   
    17     8     9 1   
    18     8    10 ar  
    19     9    31 1   
    20     9    32 1   
    21    10    11 ar  
    22    10    30 1   
    23    11    38 1   
    24    12    13 1   
    25    12    23 2   
    26    12    24 1   
    27    13    21 2   
    28    13    22 1   
    29    14    15 ar  
    30    14    20 ar  
    31    14    39 1   
    32    15    16 ar  
    33    15    40 1   
    34    16    17 ar  
    35    16    18 1   
    36    17    19 ar  
    37    17    41 1   
    38    19    20 ar  
    39    19    22 1   
    40    20    21 1   
    41    21    42 1   
    42    22    43 1   
    43    24    25 1   
    44    25    44 1   
    45    25    45 1   
    46    25    46 1   
    47    26    27 ar  
    48    26    47 1   
    49    27    28 1   
    50    27    29 ar  
    51    29    48 1   
@<TRIPOS>SUBSTRUCTURE
     1 SLG         1 TEMP              0 ****  ****    0 ROOT
