@<TRIPOS>MOLECULE
SLG
   48    51     1     0     0
SMALL
No Charge or Current Charge


@<TRIPOS>ATOM
      1 C1           2.5090    33.6920    27.2140 c3         1 SLG       0.143300
      2 C2           3.3110    34.9970    27.3190 ca         1 SLG      -0.118300
      3 C3           2.9930    35.9500    28.3170 ca         1 SLG      -0.085000
      4 C7           4.3630    35.2730    26.3980 cp         1 SLG       0.033000
      5 C8           4.7560    34.3080    25.3300 cp         1 SLG      -0.104000
      6 C9           5.2130    33.0080    25.6440 ca         1 SLG      -0.123000
      7 C10          5.5860    32.1090    24.6300 ca         1 SLG      -0.091000
      8 C11          5.5220    32.4930    23.2740 ca         1 SLG      -0.096600
      9 C12          5.9310    31.5180    22.2060 c          1 SLG       0.720600
     10 C13          5.0720    33.7890    22.9490 ca         1 SLG       0.139000
     11 C14          4.6990    34.6830    23.9670 ca         1 SLG      -0.114000
     12 C15          0.9290    32.8030    29.0170 c          1 SLG       0.629300
     13 C16          2.0360    32.3020    29.9010 cc         1 SLG      -0.127300
     14 C19          5.3680    32.1030    31.5230 ca         1 SLG      -0.039000
     15 C20          5.7420    31.2170    32.5560 ca         1 SLG      -0.143000
     16 C21          4.8060    30.2910    33.0770 ca         1 SLG       0.145000
     17 C22          3.4880    30.2400    32.5750 ca         1 SLG      -0.123000
     18 Cl1          5.2900    29.1960    34.3660 cl         1 SLG      -0.221000
     19 C23          3.1480    31.1310    31.5490 ca         1 SLG      -0.033200
     20 C18          4.0530    32.0190    31.0490 ca         1 SLG      -0.114800
     21 C17          3.3530    32.7570    30.0320 cd         1 SLG      -0.187200
     22 N1           1.9400    31.2940    30.8920 na         1 SLG      -0.189700
     23 O2          -0.2270    32.4600    29.2380 o          1 SLG      -0.621100
     24 N            1.2110    33.6720    27.9280 n          1 SLG      -0.390800
     25 C            0.0870    34.3270    27.2210 c3         1 SLG       0.081300
     26 C6           5.0460    36.5080    26.4910 ca         1 SLG      -0.144000
     27 C5           4.7170    37.4400    27.4820 ca         1 SLG       0.165000
     28 F            5.3900    38.6090    27.5580 f          1 SLG      -0.187000
     29 C4           3.6960    37.1630    28.3980 ca         1 SLG      -0.169000
     30 Cl           4.9240    34.3220    21.2730 cl         1 SLG      -0.213000
     31 O1           6.8890    31.7980    21.4980 o          1 SLG      -0.698000
     32 O            5.3420    30.4470    22.1540 o          1 SLG      -0.698000
     33 H1           2.2950    33.5190    26.1500 h1         1 SLG       0.078200
     34 H2           3.1250    32.8390    27.5200 h1         1 SLG       0.078200
     35 H3           2.1990    35.7610    29.0350 ha         1 SLG       0.118000
     36 H4           5.2910    32.6980    26.6830 ha         1 SLG       0.096000
     37 H5           5.9350    31.1130    24.8960 ha         1 SLG       0.131000
     38 H6           4.3490    35.6770    23.6990 ha         1 SLG       0.108000
     39 H7           6.0730    32.8230    31.1110 ha         1 SLG       0.122000
     40 H8           6.7530    31.2450    32.9550 ha         1 SLG       0.125000
     41 H9           2.7650    29.5330    32.9730 ha         1 SLG       0.129000
     42 H10          3.7940    33.5960    29.5060 ha         1 SLG       0.220000
     43 H11          1.0950    30.7690    31.0970 hn         1 SLG       0.368000
     44 H12         -0.5910    34.7930    27.9480 h1         1 SLG       0.045700
     45 H13          0.4640    35.1070    26.5460 h1         1 SLG       0.045700
     46 H14         -0.4660    33.5830    26.6340 h1         1 SLG       0.045700
     47 H15          5.8460    36.7350    25.7930 ha         1 SLG       0.142000
     48 H16          3.4460    37.8900    29.1670 ha         1 SLG       0.123000
@<TRIPOS>BOND
     1     1     2 1   
     2     1    24 1   
     3     1    33 1   
     4     1    34 1   
     5     2     3 ar  
     6     2     4 ar  
     7     3    29 ar  
     8     3    35 1   
     9     4     5 1   
    10     4    26 ar  
    11     5     6 ar  
    12     5    11 ar  
    13     6     7 ar  
    14     6    36 1   
    15     7     8 ar  
    16     7    37 1   
    17     8     9 1   
    18     8    10 ar  
    19     9    31 1   
    20     9    32 1   
    21    10    11 ar  
    22    10    30 1   
    23    11    38 1   
    24    12    13 1   
    25    12    23 2   
    26    12    24 1   
    27    13    21 2   
    28    13    22 1   
    29    14    15 ar  
    30    14    20 ar  
    31    14    39 1   
    32    15    16 ar  
    33    15    40 1   
    34    16    17 ar  
    35    16    18 1   
    36    17    19 ar  
    37    17    41 1   
    38    19    20 ar  
    39    19    22 1   
    40    20    21 1   
    41    21    42 1   
    42    22    43 1   
    43    24    25 1   
    44    25    44 1   
    45    25    45 1   
    46    25    46 1   
    47    26    27 ar  
    48    26    47 1   
    49    27    28 1   
    50    27    29 ar  
    51    29    48 1   
@<TRIPOS>SUBSTRUCTURE
     1 SLG         1 TEMP              0 ****  ****    0 ROOT
