@<TRIPOS>MOLECULE
SLH
   67    70     1     0     0
SMALL
No Charge or Current Charge


@<TRIPOS>ATOM
      1 C1          -0.8790    -2.3500    -0.3250 c6         1 SLH       0.101000
      2 C2          -1.6920    -3.5230     0.2820 c6         1 SLH      -0.077700
      3 C3          -1.7710    -4.7250    -0.6980 c6         1 SLH      -0.070400
      4 N4           4.0680    -0.4160    -0.1470 nu         1 SLH      -0.954200
      5 C5          -3.9860    -5.4420     0.3640 c6         1 SLH      -0.074400
      6 C6          -3.9080    -4.2350     1.3310 c6         1 SLH      -0.069400
      7 C9          -2.1750    -0.6880     1.0580 c6         1 SLH       0.106700
      8 C11         -2.9620     2.2540    -1.3690 c3         1 SLH       0.058500
      9 C13         -1.4100     4.0810    -0.4040 cc         1 SLH      -0.224300
     10 C14         -1.3270     5.3990    -0.0310 cd         1 SLH       0.227900
     11 C15         -0.3620     4.2860     1.5520 cc         1 SLH       0.394400
     12 C16         -3.6860     1.8250    -2.6850 c          1 SLH       0.538900
     13 C12         -2.0180     3.4580    -1.6430 c3         1 SLH       0.018900
     14 N3          -0.7900     3.3860     0.6140 na         1 SLH      -0.274500
     15 N2          -0.6760     5.5200     1.1820 nd         1 SLH      -0.687000
     16 N1          -2.2020     1.1540    -0.6800 n7         1 SLH      -0.882400
     17 C10         -2.9900     0.0770    -0.0420 c3         1 SLH       0.152800
     18 C8          -3.0000    -1.8570     1.6640 c6         1 SLH      -0.083400
     19 C7          -3.1150    -3.0610     0.6950 c6         1 SLH      -0.059700
     20 C4          -2.5740    -5.8980    -0.0800 c6         1 SLH      -0.072400
     21 N           -0.8340    -1.1550     0.5740 n          1 SLH      -0.403800
     22 C            0.3130    -0.3300     0.7200 c          1 SLH       0.618100
     23 O            0.2430     0.7400     1.3150 o          1 SLH      -0.628100
     24 C17          1.6570    -0.8130     0.1580 c3         1 SLH      -0.171400
     25 C18          2.8320     0.1390     0.4270 c3         1 SLH       0.217800
     26 C19          5.3440     0.1490    -0.1160 ca         1 SLH       0.305000
     27 C24          6.4080    -0.5430    -0.7160 ca         1 SLH      -0.180500
     28 C23          7.7060    -0.0030    -0.7030 ca         1 SLH      -0.070000
     29 C22          7.9420     1.2370    -0.0860 ca         1 SLH      -0.157000
     30 C21          6.8820     1.9350     0.5160 ca         1 SLH      -0.070000
     31 C20          5.5860     1.3910     0.5010 ca         1 SLH      -0.180500
     32 H1           0.1290    -2.7210    -0.5480 h1         1 SLH       0.047700
     33 H2          -1.3290    -2.0510    -1.2820 h1         1 SLH       0.047700
     34 H3          -1.1600    -3.8570     1.1850 hc         1 SLH       0.057700
     35 H4          -2.2430    -4.4110    -1.6390 hc         1 SLH       0.041200
     36 H5          -0.7600    -5.0680    -0.9550 hc         1 SLH       0.041200
     37 H6           3.9960    -1.3180    -0.6180 hn         1 SLH       0.457000
     38 H7          -4.5110    -6.2760     0.8500 hc         1 SLH       0.042200
     39 H8          -4.5810    -5.1710    -0.5190 hc         1 SLH       0.042200
     40 H9          -4.9230    -3.9050     1.5910 hc         1 SLH       0.042200
     41 H10         -3.4310    -4.5460     2.2710 hc         1 SLH       0.042200
     42 H11         -2.0220     0.0350     1.8720 h1         1 SLH       0.090700
     43 H12         -3.7570     2.6240    -0.7070 h1         1 SLH       0.086700
     44 H13         -1.6970     6.2650    -0.5680 h4         1 SLH       0.028100
     45 H14          0.1540     3.9870     2.4580 h5         1 SLH       0.058100
     46 H15         -4.4400     2.5510    -3.0620 h4         1 SLH      -0.005800
     47 H16         -1.2150     3.1370    -2.3200 hc         1 SLH       0.055700
     48 H17         -2.5810     4.2280    -2.1860 hc         1 SLH       0.055700
     49 H18         -0.6900     2.3730     0.6820 hn         1 SLH       0.388000
     50 H20         -1.5460     0.7240    -1.3440 hn         1 SLH       0.427000
     51 H22         -3.3380    -0.6300    -0.8050 h1         1 SLH       0.042700
     52 H23         -3.8800     0.4970     0.4470 h1         1 SLH       0.042700
     53 H24         -2.5180    -2.1830     2.5960 hc         1 SLH       0.053700
     54 H25         -4.0000    -1.5010     1.9470 hc         1 SLH       0.053700
     55 H26         -3.6590    -2.7420    -0.2050 hc         1 SLH       0.049700
     56 H27         -2.6580    -6.7160    -0.8080 hc         1 SLH       0.041700
     57 H28         -2.0280    -6.3040     0.7830 hc         1 SLH       0.041700
     58 H29          1.8480    -1.8170     0.5540 hc         1 SLH       0.065200
     59 H30          1.5290    -1.0040    -0.9130 hc         1 SLH       0.065200
     60 H31          2.9470     0.2770     1.5120 h1         1 SLH       0.056200
     61 H32          2.6140     1.1200    -0.0190 h1         1 SLH       0.056200
     62 H33          6.2320    -1.5020    -1.1950 ha         1 SLH       0.111000
     63 H34          8.5260    -0.5440    -1.1700 ha         1 SLH       0.108500
     64 H35          8.9460     1.6560    -0.0750 ha         1 SLH       0.113000
     65 H36          7.0650     2.8950     0.9940 ha         1 SLH       0.108500
     66 H37          4.7760     1.9420     0.9700 ha         1 SLH       0.111000
     67 O1          -3.4700     0.7760    -3.2880 o          1 SLH      -0.518100
@<TRIPOS>BOND
     1     1     2 1   
     2     1    21 1   
     3     1    32 1   
     4     1    33 1   
     5     2     3 1   
     6     2    19 1   
     7     2    34 1   
     8     3    20 1   
     9     3    35 1   
    10     3    36 1   
    11     4    25 1   
    12     4    26 1   
    13     4    37 1   
    14     5     6 1   
    15     5    20 1   
    16     5    38 1   
    17     5    39 1   
    18     6    19 1   
    19     6    40 1   
    20     6    41 1   
    21     7    17 1   
    22     7    18 1   
    23     7    21 1   
    24     7    42 1   
    25     8    12 1   
    26     8    13 1   
    27     8    16 1   
    28     8    43 1   
    29     9    10 2   
    30     9    13 1   
    31     9    14 1   
    32    10    15 1   
    33    10    44 1   
    34    11    14 1   
    35    11    15 2   
    36    11    45 1   
    37    12    46 1   
    38    12    67 2   
    39    13    47 1   
    40    13    48 1   
    41    14    49 1   
    42    16    17 1   
    43    16    50 1   
    44    17    51 1   
    45    17    52 1   
    46    18    19 1   
    47    18    53 1   
    48    18    54 1   
    49    19    55 1   
    50    20    56 1   
    51    20    57 1   
    52    21    22 1   
    53    22    23 2   
    54    22    24 1   
    55    24    25 1   
    56    24    58 1   
    57    24    59 1   
    58    25    60 1   
    59    25    61 1   
    60    26    27 ar  
    61    26    31 ar  
    62    27    28 ar  
    63    27    62 1   
    64    28    29 ar  
    65    28    63 1   
    66    29    30 ar  
    67    29    64 1   
    68    30    31 ar  
    69    30    65 1   
    70    31    66 1   
@<TRIPOS>SUBSTRUCTURE
     1 SLH         1 TEMP              0 ****  ****    0 ROOT
