@<TRIPOS>MOLECULE
SLH
   67    70     1     0     0
SMALL
bcc


@<TRIPOS>ATOM
      1 C1          -0.9280    -2.2620    -0.4110 c6         1 SLH       0.101000
      2 C2          -1.6510    -3.4190     0.2650 c6         1 SLH      -0.077700
      3 C3          -1.7580    -4.6220    -0.6680 c6         1 SLH      -0.070400
      4 N4           3.9590    -0.6040    -0.1970 nu         1 SLH      -0.760600
      5 C5          -3.8700    -5.3380     0.5070 c6         1 SLH      -0.074400
      6 C6          -3.7620    -4.1280     1.4300 c6         1 SLH      -0.069400
      7 C9          -2.1120    -0.6150     0.9980 c6         1 SLH       0.106700
      8 C11         -2.8470     2.1620    -1.4100 c3         1 SLH       0.058500
      9 C13         -1.3740     3.9860    -0.4670 cc         1 SLH      -0.238900
     10 C14         -1.3220     5.3000    -0.0860 cd         1 SLH       0.293200
     11 C15         -0.3990     4.2040     1.4850 cc         1 SLH       0.394400
     12 C16         -3.5440     1.7810    -2.6960 c          1 SLH       0.538900
     13 C12         -1.9030     3.3420    -1.7000 c3         1 SLH       0.018900
     14 N3          -0.7730     3.3060     0.5550 na         1 SLH      -0.274900
     15 N2          -0.7120     5.4260     1.1320 nd         1 SLH      -0.687000
     16 N1          -2.1300     1.0950    -0.7620 n7         1 SLH      -0.827200
     17 C10         -2.9340     0.1000    -0.0790 c3         1 SLH       0.152800
     18 C8          -2.8870    -1.7580     1.6520 c6         1 SLH      -0.083400
     19 C7          -3.0300    -2.9770     0.7480 c6         1 SLH      -0.059700
     20 C4          -2.4980    -5.7740     0.0040 c6         1 SLH      -0.072400
     21 N           -0.8410    -1.1000     0.4620 n          1 SLH      -0.470800
     22 C            0.3020    -0.4310     0.7280 c          1 SLH       0.685100
     23 O            0.3340     0.5550     1.4590 o          1 SLH      -0.628100
     24 C17          1.5820    -0.9380     0.0900 c3         1 SLH      -0.171400
     25 C18          2.7710    -0.0510     0.4140 c3         1 SLH       0.217800
     26 C19          5.1690     0.0460    -0.1120 ca         1 SLH       0.166600
     27 C24          6.2220    -0.3350    -0.9580 ca         1 SLH      -0.198500
     28 C23          7.4600     0.2770    -0.8720 ca         1 SLH      -0.088000
     29 C22          7.6940     1.2870     0.0570 ca         1 SLH      -0.175000
     30 C21          6.6570     1.6710     0.8940 ca         1 SLH      -0.088000
     31 C20          5.4080     1.0690     0.8160 ca         1 SLH      -0.198500
     32 H1           0.0670    -2.5850    -0.7060 h1         1 SLH       0.047700
     33 H2          -1.4520    -1.9930    -1.3370 h1         1 SLH       0.047700
     34 H3          -1.0610    -3.7160     1.1440 hc         1 SLH       0.057700
     35 H4          -2.2880    -4.3260    -1.5800 hc         1 SLH       0.041200
     36 H5          -0.7600    -4.9450    -0.9800 hc         1 SLH       0.041200
     37 H6           3.8020    -1.0660    -1.0790 hn         1 SLH       0.401800
     38 H7          -4.3640    -6.1640     1.0240 hc         1 SLH       0.042200
     39 H8          -4.5070    -5.0830    -0.3470 hc         1 SLH       0.042200
     40 H9          -4.7560    -3.7990     1.7460 hc         1 SLH       0.042200
     41 H10         -3.2210    -4.4070     2.3420 hc         1 SLH       0.042200
     42 H11         -1.8790     0.1240     1.7620 h1         1 SLH       0.090700
     43 H12         -3.6340     2.5260    -0.7360 h1         1 SLH       0.086700
     44 H13         -1.6920     6.1550    -0.6320 h4         1 SLH       0.028100
     45 H14          0.0940     3.9160     2.4010 h5         1 SLH       0.058100
     46 H15         -4.1560     2.5880    -3.1420 h4         1 SLH      -0.005800
     47 H16         -1.0810     2.9810    -2.3280 hc         1 SLH       0.055700
     48 H17         -2.4230     4.1040    -2.2840 hc         1 SLH       0.055700
     49 H18         -0.6900     2.2960     0.6120 hn         1 SLH       0.337700
     50 H20         -1.5090     0.6490    -1.4280 hn         1 SLH       0.371800
     51 H22         -3.4040    -0.6180    -0.7620 h1         1 SLH       0.042700
     52 H23         -3.7520     0.6100     0.4340 h1         1 SLH       0.042700
     53 H24         -2.3690    -2.0520     2.5710 hc         1 SLH       0.053700
     54 H25         -3.8710    -1.3880     1.9530 hc         1 SLH       0.053700
     55 H26         -3.6160    -2.6890    -0.1370 hc         1 SLH       0.049700
     56 H27         -2.5970    -6.6120    -0.6910 hc         1 SLH       0.041700
     57 H28         -1.9030    -6.1390     0.8480 hc         1 SLH       0.041700
     58 H29          1.7850    -1.9600     0.4230 hc         1 SLH       0.065200
     59 H30          1.4540    -0.9900    -0.9950 hc         1 SLH       0.065200
     60 H31          2.9100    -0.0050     1.4960 h1         1 SLH       0.056200
     61 H32          2.5790     0.9750     0.0760 h1         1 SLH       0.056200
     62 H33          6.0600    -1.1200    -1.6880 ha         1 SLH       0.129000
     63 H34          8.2500    -0.0380    -1.5420 ha         1 SLH       0.126500
     64 H35          8.6630     1.7640     0.1210 ha         1 SLH       0.131000
     65 H36          6.8110     2.4590     1.6210 ha         1 SLH       0.126500
     66 H37          4.6230     1.4020     1.4820 ha         1 SLH       0.129000
     67 O1          -3.4500     0.7050    -3.2280 o          1 SLH      -0.518100
@<TRIPOS>BOND
     1     1     2 1   
     2     1    21 1   
     3     1    32 1   
     4     1    33 1   
     5     2     3 1   
     6     2    19 1   
     7     2    34 1   
     8     3    20 1   
     9     3    35 1   
    10     3    36 1   
    11     4    25 1   
    12     4    26 1   
    13     4    37 1   
    14     5     6 1   
    15     5    20 1   
    16     5    38 1   
    17     5    39 1   
    18     6    19 1   
    19     6    40 1   
    20     6    41 1   
    21     7    17 1   
    22     7    18 1   
    23     7    21 1   
    24     7    42 1   
    25     8    12 1   
    26     8    13 1   
    27     8    16 1   
    28     8    43 1   
    29     9    10 2   
    30     9    13 1   
    31     9    14 1   
    32    10    15 1   
    33    10    44 1   
    34    11    14 1   
    35    11    15 2   
    36    11    45 1   
    37    12    46 1   
    38    12    67 2   
    39    13    47 1   
    40    13    48 1   
    41    14    49 1   
    42    16    17 1   
    43    16    50 1   
    44    17    51 1   
    45    17    52 1   
    46    18    19 1   
    47    18    53 1   
    48    18    54 1   
    49    19    55 1   
    50    20    56 1   
    51    20    57 1   
    52    21    22 1   
    53    22    23 2   
    54    22    24 1   
    55    24    25 1   
    56    24    58 1   
    57    24    59 1   
    58    25    60 1   
    59    25    61 1   
    60    26    27 ar  
    61    26    31 ar  
    62    27    28 ar  
    63    27    62 1   
    64    28    29 ar  
    65    28    63 1   
    66    29    30 ar  
    67    29    64 1   
    68    30    31 ar  
    69    30    65 1   
    70    31    66 1   
@<TRIPOS>SUBSTRUCTURE
     1 SLH         1 TEMP              0 ****  ****    0 ROOT
