@<TRIPOS>MOLECULE
SLI
   27    28     1     0     0
SMALL
No Charge or Current Charge


@<TRIPOS>ATOM
      1 N            0.6450    -0.3260    -0.0410 ns         1 SLI      -0.122000
      2 C1          -2.9300     0.8650    -0.2160 ca         1 SLI       0.225100
      3 O1          -2.7810     2.2040    -0.4060 oh         1 SLI      -0.547100
      4 C2          -1.8020     0.0190    -0.0940 ca         1 SLI      -0.279600
      5 O2          -0.2230     1.7920    -0.3420 o          1 SLI      -0.634100
      6 C3          -2.0250    -1.3690     0.1020 ca         1 SLI      -0.038000
      7 C4          -3.3320    -1.8810     0.1720 ca         1 SLI      -0.170000
      8 C5          -4.4370    -1.0280     0.0490 ca         1 SLI      -0.038000
      9 C6          -4.2300     0.3450    -0.1450 ca         1 SLI      -0.173000
     10 C7          -0.3960     0.5870    -0.1720 c          1 SLI       0.637700
     11 C8           2.0610    -0.1830    -0.0580 ca         1 SLI      -0.027000
     12 C9           2.8320    -1.3510     0.1090 ca         1 SLI      -0.143000
     13 C10          4.2370    -1.2920     0.1030 ca         1 SLI      -0.085000
     14 C11          4.8860    -0.0600    -0.0700 ca         1 SLI      -0.131000
     15 C12          4.1300     1.1110    -0.2380 ca         1 SLI      -0.085000
     16 C13          2.7250     1.0530    -0.2320 ca         1 SLI      -0.143000
     17 HN           0.3380    -1.2780     0.0940 hn         1 SLI       0.156000
     18 HO1         -1.7990     2.3590    -0.4260 ho         1 SLI       0.522000
     19 H3          -1.2010    -2.0710     0.2030 ha         1 SLI       0.103000
     20 H4          -3.4870    -2.9470     0.3230 ha         1 SLI       0.120000
     21 H5          -5.4470    -1.4280     0.1040 ha         1 SLI       0.118000
     22 H6          -5.0840     1.0110    -0.2410 ha         1 SLI       0.134000
     23 H9           2.3420    -2.3130     0.2440 ha         1 SLI       0.128000
     24 H10          4.8200    -2.2010     0.2330 ha         1 SLI       0.115000
     25 H11          5.9730    -0.0130    -0.0750 ha         1 SLI       0.117000
     26 H12          4.6330     2.0660    -0.3720 ha         1 SLI       0.115000
     27 H13          2.1760     1.9790    -0.3640 ha         1 SLI       0.128000
@<TRIPOS>BOND
     1     1    10 1   
     2     1    11 1   
     3     1    17 1   
     4     2     3 1   
     5     2     4 ar  
     6     2     9 ar  
     7     3    18 1   
     8     4     6 ar  
     9     4    10 1   
    10     5    10 2   
    11     6     7 ar  
    12     6    19 1   
    13     7     8 ar  
    14     7    20 1   
    15     8     9 ar  
    16     8    21 1   
    17     9    22 1   
    18    11    12 ar  
    19    11    16 ar  
    20    12    13 ar  
    21    12    23 1   
    22    13    14 ar  
    23    13    24 1   
    24    14    15 ar  
    25    14    25 1   
    26    15    16 ar  
    27    15    26 1   
    28    16    27 1   
@<TRIPOS>SUBSTRUCTURE
     1 SLI         1 TEMP              0 ****  ****    0 ROOT
