@<TRIPOS>MOLECULE
SLI
   27    28     1     0     0
SMALL
bcc


@<TRIPOS>ATOM
      1 N            0.6400    -0.4170    -0.0290 ns         1 SLI      -0.448100
      2 C1          -2.8150     0.8620    -0.0630 ca         1 SLI       0.225100
      3 O1          -2.6280     2.1800    -0.0820 oh         1 SLI      -0.508100
      4 C2          -1.7510    -0.0640    -0.1200 ca         1 SLI      -0.279600
      5 O2          -0.1650     1.6720    -0.3490 o          1 SLI      -0.634100
      6 C3          -2.0550    -1.4310    -0.1340 ca         1 SLI      -0.056000
      7 C4          -3.3560    -1.8830    -0.0660 ca         1 SLI      -0.188000
      8 C5          -4.3950    -0.9580     0.0180 ca         1 SLI      -0.056000
      9 C6          -4.1300     0.3950     0.0190 ca         1 SLI      -0.191000
     10 C7          -0.3670     0.4650    -0.1800 c          1 SLI       0.704700
     11 C8           2.0240    -0.1990    -0.0540 ca         1 SLI       0.065600
     12 C9           2.8240    -1.2820     0.3220 ca         1 SLI      -0.161000
     13 C10          4.2030    -1.1760     0.3210 ca         1 SLI      -0.103000
     14 C11          4.8150     0.0130    -0.0530 ca         1 SLI      -0.149000
     15 C12          4.0220     1.0860    -0.4310 ca         1 SLI      -0.103000
     16 C13          2.6360     0.9960    -0.4370 ca         1 SLI      -0.161000
     17 HN           0.3830    -1.3620     0.2060 hn         1 SLI       0.322500
     18 HO1         -1.6600     2.3310    -0.2060 ho         1 SLI       0.483000
     19 H3          -1.2720    -2.1740    -0.2160 ha         1 SLI       0.121000
     20 H4          -3.5620    -2.9440    -0.0840 ha         1 SLI       0.138000
     21 H5          -5.4210    -1.2990     0.0760 ha         1 SLI       0.136000
     22 H6          -4.9360     1.1160     0.0740 ha         1 SLI       0.152000
     23 H9           2.3590    -2.2150     0.6180 ha         1 SLI       0.146000
     24 H10          4.7990    -2.0300     0.6180 ha         1 SLI       0.133000
     25 H11          5.8940     0.1000    -0.0530 ha         1 SLI       0.135000
     26 H12          4.4820     2.0180    -0.7310 ha         1 SLI       0.133000
     27 H13          2.0560     1.8510    -0.7400 ha         1 SLI       0.146000
@<TRIPOS>BOND
     1     1    10 1   
     2     1    11 1   
     3     1    17 1   
     4     2     3 1   
     5     2     4 ar  
     6     2     9 ar  
     7     3    18 1   
     8     4     6 ar  
     9     4    10 1   
    10     5    10 2   
    11     6     7 ar  
    12     6    19 1   
    13     7     8 ar  
    14     7    20 1   
    15     8     9 ar  
    16     8    21 1   
    17     9    22 1   
    18    11    12 ar  
    19    11    16 ar  
    20    12    13 ar  
    21    12    23 1   
    22    13    14 ar  
    23    13    24 1   
    24    14    15 ar  
    25    14    25 1   
    26    15    16 ar  
    27    15    26 1   
    28    16    27 1   
@<TRIPOS>SUBSTRUCTURE
     1 SLI         1 TEMP              0 ****  ****    0 ROOT
