@<TRIPOS>MOLECULE
SLJ
   44    46     1     0     0
SMALL
No Charge or Current Charge


@<TRIPOS>ATOM
      1 C1         -31.5520     6.1160   -12.3490 c3         1 SLJ      -0.085400
      2 C2         -31.6210     4.6950   -12.9400 c3         1 SLJ       0.175600
      3 C3         -32.6040     3.6540   -14.9370 ca         1 SLJ       0.589300
      4 C7         -33.3420     3.8120   -16.1270 ca         1 SLJ      -0.166300
      5 C8         -33.8420     5.2030   -16.5080 c3         1 SLJ       0.297100
      6 C9         -36.1490     5.0720   -17.5270 c3         1 SLJ       0.235100
      7 C10        -34.1520     5.5890   -19.0000 ca         1 SLJ       0.237000
      8 C11        -32.8070     5.2770   -19.3170 ca         1 SLJ      -0.083000
      9 C12        -32.3150     5.6060   -20.5920 ca         1 SLJ      -0.121000
     10 C13        -33.0930     6.2180   -21.5450 ca         1 SLJ      -0.104000
     11 C14        -31.0290     5.4230   -21.2030 cc         1 SLJ      -0.135300
     12 C15        -29.8100     4.8090   -20.6140 c          1 SLJ       0.733200
     13 C16        -34.4280     6.5380   -21.2590 ca         1 SLJ      -0.079000
     14 O2         -29.8300     4.3850   -19.4670 o          1 SLJ      -0.708000
     15 O1         -28.8110     4.7530   -21.3180 o          1 SLJ      -0.708000
     16 N3         -31.1470     5.9470   -22.4860 na         1 SLJ       0.036500
     17 N2         -32.4260     6.4590   -22.7460 nc         1 SLJ      -0.352400
     18 C17        -34.9510     6.2220   -19.9880 ca         1 SLJ      -0.146000
     19 N1         -34.6950     5.2750   -17.7230 nh         1 SLJ      -0.854400
     20 C6         -33.5860     2.6740   -16.9240 ca         1 SLJ      -0.030000
     21 C5         -33.0830     1.4390   -16.4920 ca         1 SLJ      -0.200000
     22 C4         -32.3610     1.3770   -15.2920 ca         1 SLJ       0.365900
     23 N          -32.1220     2.4590   -14.5230 nb         1 SLJ      -0.766000
     24 O          -32.3680     4.7720   -14.1670 os         1 SLJ      -0.472300
     25 C          -30.7730     6.1800   -11.0210 c3         1 SLJ      -0.087100
     26 H1         -31.0760     6.7860   -13.0760 hc         1 SLJ       0.052200
     27 H2         -32.5710     6.4880   -12.1850 hc         1 SLJ       0.052200
     28 H3         -32.1130     4.0240   -12.2230 h1         1 SLJ       0.044200
     29 H4         -30.6030     4.3250   -13.1240 h1         1 SLJ       0.044200
     30 H5         -32.9720     5.8640   -16.6290 h1         1 SLJ       0.061200
     31 H6         -34.4010     5.6120   -15.6540 h1         1 SLJ       0.061200
     32 H7         -36.3390     4.4800   -16.6210 h1         1 SLJ       0.018700
     33 H8         -36.6600     6.0390   -17.4260 h1         1 SLJ       0.018700
     34 H9         -36.5780     4.5270   -18.3770 h1         1 SLJ       0.018700
     35 H10        -32.1700     4.7820   -18.5930 ha         1 SLJ       0.141000
     36 H11        -35.0510     7.0250   -22.0050 ha         1 SLJ       0.101000
     37 H13        -30.4110     5.9760   -23.1870 hn         1 SLJ       0.376000
     38 H14        -35.9830     6.4840   -19.7750 ha         1 SLJ       0.086000
     39 H15        -34.1460     2.7380   -17.8550 ha         1 SLJ       0.135000
     40 H16        -33.2470     0.5380   -17.0750 ha         1 SLJ       0.119000
     41 H17        -31.9610     0.4290   -14.9340 h4         1 SLJ       0.007100
     42 H18        -30.7510     7.2080   -10.6400 hc         1 SLJ       0.031033
     43 H19        -31.2460     5.5430   -10.2630 hc         1 SLJ       0.031033
     44 H20        -29.7390     5.8440   -11.1610 hc         1 SLJ       0.031033
@<TRIPOS>BOND
     1     1     2 1   
     2     1    25 1   
     3     1    26 1   
     4     1    27 1   
     5     2    24 1   
     6     2    28 1   
     7     2    29 1   
     8     3     4 ar  
     9     3    23 ar  
    10     3    24 1   
    11     4     5 1   
    12     4    20 ar  
    13     5    19 1   
    14     5    30 1   
    15     5    31 1   
    16     6    19 1   
    17     6    32 1   
    18     6    33 1   
    19     6    34 1   
    20     7     8 ar  
    21     7    18 ar  
    22     7    19 1   
    23     8     9 ar  
    24     8    35 1   
    25     9    10 ar  
    26     9    11 2   
    27    10    13 ar  
    28    10    17 2   
    29    11    12 1   
    30    11    16 1   
    31    12    14 1   
    32    12    15 1   
    33    13    18 ar  
    34    13    36 1   
    35    16    17 1   
    36    16    37 1   
    37    18    38 1   
    38    20    21 ar  
    39    20    39 1   
    40    21    22 ar  
    41    21    40 1   
    42    22    23 ar  
    43    22    41 1   
    44    25    42 1   
    45    25    43 1   
    46    25    44 1   
@<TRIPOS>SUBSTRUCTURE
     1 SLJ         1 TEMP              0 ****  ****    0 ROOT
