@<TRIPOS>MOLECULE
SLJ
   44    46     1     0     0
SMALL
abcg2


@<TRIPOS>ATOM
      1 C1         -31.4830     5.9920   -12.3770 c3         1 SLJ      -0.085400
      2 C2         -31.6320     4.6360   -13.0340 c3         1 SLJ       0.175600
      3 C3         -32.6260     3.7470   -15.0060 ca         1 SLJ       0.589300
      4 C7         -33.3840     3.9870   -16.1680 ca         1 SLJ      -0.166300
      5 C8         -33.8480     5.3880   -16.4980 c3         1 SLJ       0.297100
      6 C9         -36.1000     5.3050   -17.5030 c3         1 SLJ       0.235100
      7 C10        -34.1160     5.5740   -18.9250 ca         1 SLJ       0.237000
      8 C11        -32.7520     5.4710   -19.1380 ca         1 SLJ      -0.083000
      9 C12        -32.2550     5.5960   -20.4530 ca         1 SLJ      -0.121000
     10 C13        -33.1300     5.8110   -21.5510 ca         1 SLJ      -0.104000
     11 C14        -30.9840     5.5460   -21.0350 cc         1 SLJ      -0.135300
     12 C15        -29.5990     5.3450   -20.4960 c          1 SLJ       0.733200
     13 C16        -34.5190     5.9040   -21.3280 ca         1 SLJ      -0.079000
     14 O2         -29.5070     5.1900   -19.2650 o          1 SLJ      -0.708000
     15 O1         -28.6860     5.3540   -21.3450 o          1 SLJ      -0.708000
     16 N3         -31.2030     5.7290   -22.3490 na         1 SLJ       0.036500
     17 N2         -32.4590     5.8910   -22.7090 nc         1 SLJ      -0.352400
     18 C17        -34.9830     5.7880   -20.0510 ca         1 SLJ      -0.146000
     19 N1         -34.6770     5.4920   -17.6660 nh         1 SLJ      -0.854400
     20 C6         -33.6780     2.8860   -16.9450 ca         1 SLJ      -0.030000
     21 C5         -33.2250     1.6200   -16.5700 ca         1 SLJ      -0.200000
     22 C4         -32.4900     1.5140   -15.4110 ca         1 SLJ       0.365900
     23 N          -32.1960     2.5610   -14.6380 nb         1 SLJ      -0.766000
     24 O          -32.3520     4.8140   -14.2510 os         1 SLJ      -0.472300
     25 C          -30.7270     5.8800   -11.0590 c3         1 SLJ      -0.087100
     26 H1         -30.9540     6.6700   -13.0510 hc         1 SLJ       0.052200
     27 H2         -32.4710     6.4240   -12.2010 hc         1 SLJ       0.052200
     28 H3         -32.1700     3.9470   -12.3760 h1         1 SLJ       0.044200
     29 H4         -30.6510     4.1950   -13.2350 h1         1 SLJ       0.044200
     30 H5         -32.9820     6.0500   -16.6000 h1         1 SLJ       0.061200
     31 H6         -34.4080     5.7860   -15.6480 h1         1 SLJ       0.061200
     32 H7         -36.3130     5.1050   -16.4550 h1         1 SLJ       0.018700
     33 H8         -36.6740     6.1910   -17.7900 h1         1 SLJ       0.018700
     34 H9         -36.4790     4.4570   -18.0790 h1         1 SLJ       0.018700
     35 H10        -32.0600     5.2790   -18.3320 ha         1 SLJ       0.141000
     36 H11        -35.2060     6.0660   -22.1490 ha         1 SLJ       0.101000
     37 H13        -30.4710     5.7460   -23.0450 hn         1 SLJ       0.376000
     38 H14        -36.0490     5.8700   -19.8910 ha         1 SLJ       0.086000
     39 H15        -34.2610     3.0050   -17.8490 ha         1 SLJ       0.135000
     40 H16        -33.4440     0.7470   -17.1680 ha         1 SLJ       0.119000
     41 H17        -32.1170     0.5530   -15.0770 h4         1 SLJ       0.007100
     42 H18        -30.6270     6.8550   -10.5840 hc         1 SLJ       0.031033
     43 H19        -31.2440     5.2220   -10.3590 hc         1 SLJ       0.031033
     44 H20        -29.7230     5.4800   -11.2080 hc         1 SLJ       0.031033
@<TRIPOS>BOND
     1     1     2 1   
     2     1    25 1   
     3     1    26 1   
     4     1    27 1   
     5     2    24 1   
     6     2    28 1   
     7     2    29 1   
     8     3     4 ar  
     9     3    23 ar  
    10     3    24 1   
    11     4     5 1   
    12     4    20 ar  
    13     5    19 1   
    14     5    30 1   
    15     5    31 1   
    16     6    19 1   
    17     6    32 1   
    18     6    33 1   
    19     6    34 1   
    20     7     8 ar  
    21     7    18 ar  
    22     7    19 1   
    23     8     9 ar  
    24     8    35 1   
    25     9    10 ar  
    26     9    11 2   
    27    10    13 ar  
    28    10    17 2   
    29    11    12 1   
    30    11    16 1   
    31    12    14 1   
    32    12    15 1   
    33    13    18 ar  
    34    13    36 1   
    35    16    17 1   
    36    16    37 1   
    37    18    38 1   
    38    20    21 ar  
    39    20    39 1   
    40    21    22 ar  
    41    21    40 1   
    42    22    23 ar  
    43    22    41 1   
    44    25    42 1   
    45    25    43 1   
    46    25    44 1   
@<TRIPOS>SUBSTRUCTURE
     1 SLJ         1 TEMP              0 ****  ****    0 ROOT
