@<TRIPOS>MOLECULE
SLK
   51    53     1     0     0
SMALL
No Charge or Current Charge


@<TRIPOS>ATOM
      1 C1          29.9510    75.5640    20.2870 ca         1 SLK      -0.034000
      2 C2          30.9980    75.9920    21.1260 ca         1 SLK      -0.107000
      3 C3          31.6660    75.0650    21.9390 ca         1 SLK      -0.126000
      4 C11         31.0390    70.8450    20.5920 c6         1 SLK       0.125600
      5 C14         30.1410    70.7550    18.3200 c6         1 SLK       0.038700
      6 C15         30.1970    69.2210    17.9500 c3         1 SLK       0.283000
      7 C16         28.7820    71.0960    19.0090 c2         1 SLK       0.613200
      8 C21         30.3720    71.6330    17.0480 c3         1 SLK      -0.094100
      9 C22         26.3050    79.0440    16.2960 ca         1 SLK      -0.044000
     10 C23         27.2020    80.0180    16.7600 ca         1 SLK      -0.057000
     11 C24         28.2040    79.6550    17.6850 ca         1 SLK      -0.054300
     12 C25         28.2750    78.2940    18.1250 ca         1 SLK       0.306500
     13 C27         26.4330    77.7330    16.7680 ca         1 SLK       0.375900
     14 C28         25.2740    79.3690    15.3580 cg         1 SLK       0.317000
     15 C4          31.3010    73.7110    21.9280 ca         1 SLK       0.148000
     16 C5          30.2470    73.2440    21.1000 ca         1 SLK      -0.076300
     17 C6          29.5870    74.2030    20.2840 ca         1 SLK      -0.129000
     18 F7          31.9920    72.8730    22.7320 f          1 SLK      -0.185000
     19 N8          29.2200    76.4360    19.4300 ns         1 SLK      -0.127000
     20 C9          29.8400    71.7310    21.0740 c6         1 SLK       0.192500
     21 N10         28.6440    71.5050    20.2140 n2         1 SLK      -0.682900
     22 O13         31.2760    71.0740    19.1840 os         1 SLK      -0.425000
     23 F18         31.4390    68.8460    17.5630 f          1 SLK      -0.110333
     24 F19         29.8530    68.4260    18.9900 f          1 SLK      -0.110333
     25 F20         29.3640    68.9070    16.9300 f          1 SLK      -0.110333
     26 N26         27.3860    77.3610    17.6550 nb         1 SLK      -0.691000
     27 O30         30.2010    78.5060    19.6320 o          1 SLK      -0.580100
     28 N32         24.4360    79.6440    14.5920 n1         1 SLK      -0.425000
     29 H1          31.3100    77.0310    21.1680 ha         1 SLK       0.151000
     30 H2          32.4760    75.3970    22.5850 ha         1 SLK       0.135000
     31 H3          30.8200    69.7830    20.7650 h1         1 SLK       0.077700
     32 H4          31.9560    71.0760    21.1480 h1         1 SLK       0.077700
     33 H5          30.1990    71.2730    23.2200 hc         1 SLK       0.049700
     34 H6          28.5940    71.9290    22.8820 hc         1 SLK       0.049700
     35 H7          28.9800    70.2530    22.4710 hc         1 SLK       0.049700
     36 H8          30.3170    72.7000    17.2960 hc         1 SLK       0.062033
     37 H9          31.3610    71.4480    16.6110 hc         1 SLK       0.062033
     38 H10         29.6300    71.4390    16.2650 hc         1 SLK       0.062033
     39 H11         27.1210    81.0450    16.4070 ha         1 SLK       0.137000
     40 H12         25.7560    76.9480    16.4310 h4         1 SLK       0.036100
     41 H13         28.7740    73.9050    19.6290 ha         1 SLK       0.125000
     42 H14         28.4610    75.9850    18.9330 hn         1 SLK       0.184000
     43 H15         26.8530    71.4240    18.7010 hn         1 SLK       0.479500
     44 H16         27.7540    71.1760    17.2720 hn         1 SLK       0.479500
     45 H17         29.0970    80.8850    19.2510 hc         1 SLK       0.061367
     46 H18         30.1970    80.5150    17.9040 hc         1 SLK       0.061367
     47 H19         28.9280    81.7210    17.7110 hc         1 SLK       0.061367
     48 N17         27.6480    70.9770    18.2590 nv         1 SLK      -1.026200
     49 C12         29.3820    71.2740    22.4920 c3         1 SLK      -0.075100
     50 C29         29.3330    77.7930    19.1330 c          1 SLK       0.514600
     51 C31         29.1580    80.7500    18.1640 c3         1 SLK      -0.045800
@<TRIPOS>BOND
     1     1     2 ar  
     2     1    17 ar  
     3     1    19 1   
     4     2     3 ar  
     5     2    29 1   
     6     3    15 ar  
     7     3    30 1   
     8     4    20 1   
     9     4    22 1   
    10     4    31 1   
    11     4    32 1   
    12     5     6 1   
    13     5     7 1   
    14     5     8 1   
    15     5    22 1   
    16     6    23 1   
    17     6    24 1   
    18     6    25 1   
    19     7    21 2   
    20     7    48 1   
    21     8    36 1   
    22     8    37 1   
    23     8    38 1   
    24     9    10 ar  
    25     9    13 ar  
    26     9    14 1   
    27    10    11 ar  
    28    10    39 1   
    29    11    12 ar  
    30    11    51 1   
    31    12    26 ar  
    32    12    50 1   
    33    13    26 ar  
    34    13    40 1   
    35    14    28 3   
    36    15    16 ar  
    37    15    18 1   
    38    16    17 ar  
    39    16    20 1   
    40    17    41 1   
    41    19    42 1   
    42    19    50 1   
    43    20    21 1   
    44    20    49 1   
    45    27    50 2   
    46    33    49 1   
    47    34    49 1   
    48    35    49 1   
    49    43    48 1   
    50    44    48 1   
    51    45    51 1   
    52    46    51 1   
    53    47    51 1   
@<TRIPOS>SUBSTRUCTURE
     1 SLK         1 TEMP              0 ****  ****    0 ROOT
