@<TRIPOS>MOLECULE
SLK
   51    53     1     0     0
SMALL
bcc


@<TRIPOS>ATOM
      1 C1          29.9540    75.5480    20.2260 ca         1 SLK       0.058600
      2 C2          31.0300    75.9800    20.9970 ca         1 SLK      -0.125000
      3 C3          31.7040    75.0580    21.7830 ca         1 SLK      -0.144000
      4 C11         30.9050    70.8530    20.6220 c6         1 SLK       0.102400
      5 C14         30.1340    70.8700    18.3580 c6         1 SLK       0.015500
      6 C15         30.2000    69.4080    17.8610 c3         1 SLK       0.646900
      7 C16         28.7850    71.1650    19.0200 c2         1 SLK       0.613200
      8 C21         30.3710    71.8390    17.1970 c3         1 SLK      -0.094100
      9 C22         26.3750    78.9000    16.3730 ca         1 SLK      -0.109300
     10 C23         27.2620    79.8650    16.8270 ca         1 SLK      -0.075000
     11 C24         28.2590    79.5400    17.7430 ca         1 SLK      -0.119600
     12 C25         28.2970    78.2010    18.1570 ca         1 SLK       0.371800
     13 C27         26.4980    77.6000    16.8570 ca         1 SLK       0.441200
     14 C28         25.3560    79.2250    15.4300 cg         1 SLK       0.227800
     15 C4          31.3150    73.7370    21.8000 ca         1 SLK       0.112900
     16 C5          30.2500    73.2590    21.0420 ca         1 SLK      -0.076300
     17 C6          29.5860    74.2010    20.2670 ca         1 SLK      -0.147000
     18 F7          32.0130    72.9000    22.5930 f          1 SLK      -0.149900
     19 N8          29.1880    76.3690    19.3960 ns         1 SLK      -0.453100
     20 C9          29.7960    71.7970    21.0680 c6         1 SLK       0.192500
     21 N10         28.6490    71.6290    20.1970 n2         1 SLK      -0.682900
     22 O13         31.1930    71.0600    19.2530 os         1 SLK      -0.378600
     23 F18         31.4480    69.0740    17.5320 f          1 SLK      -0.231633
     24 F19         29.7930    68.5390    18.7950 f          1 SLK      -0.231633
     25 F20         29.4480    69.1920    16.7760 f          1 SLK      -0.231633
     26 N26         27.4360    77.2840    17.7200 nb         1 SLK      -0.691000
     27 O30         30.1830    78.4070    19.6120 o          1 SLK      -0.580100
     28 N32         24.5340    79.4830    14.6670 n1         1 SLK      -0.335800
     29 H1          31.3500    77.0090    21.0000 ha         1 SLK       0.169000
     30 H2          32.5420    75.3760    22.3900 ha         1 SLK       0.153000
     31 H3          30.5920    69.8220    20.8230 h1         1 SLK       0.077700
     32 H4          31.8410    71.0140    21.1520 h1         1 SLK       0.077700
     33 H5          30.1270    71.4830    23.2140 hc         1 SLK       0.049700
     34 H6          28.5170    72.0730    22.7900 hc         1 SLK       0.049700
     35 H7          28.9540    70.3930    22.4760 hc         1 SLK       0.049700
     36 H8          30.3160    72.8600    17.5730 hc         1 SLK       0.062033
     37 H9          31.3650    71.6890    16.7770 hc         1 SLK       0.062033
     38 H10         29.6450    71.7360    16.3950 hc         1 SLK       0.062033
     39 H11         27.1800    80.8820    16.4650 ha         1 SLK       0.155000
     40 H12         25.8260    76.8140    16.5350 h4         1 SLK       0.036100
     41 H13         28.7370    73.8780    19.6790 ha         1 SLK       0.143000
     42 H14         28.4240    75.9220    18.9020 hn         1 SLK       0.350500
     43 H15         26.8140    71.2440    18.6460 hn         1 SLK       0.424300
     44 H16         27.7350    70.9330    17.2650 hn         1 SLK       0.424300
     45 H17         29.1480    80.7650    19.2760 hc         1 SLK       0.061367
     46 H18         30.2210    80.4100    17.9360 hc         1 SLK       0.061367
     47 H19         28.9090    81.5670    17.7260 hc         1 SLK       0.061367
     48 N17         27.6840    70.9010    18.2690 nv         1 SLK      -0.915800
     49 C12         29.3290    71.4170    22.4770 c3         1 SLK      -0.075100
     50 C29         29.3270    77.6850    19.1340 c          1 SLK       0.581600
     51 C31         29.1870    80.6260    18.1980 c3         1 SLK      -0.045800
@<TRIPOS>BOND
     1     1     2 ar  
     2     1    17 ar  
     3     1    19 1   
     4     2     3 ar  
     5     2    29 1   
     6     3    15 ar  
     7     3    30 1   
     8     4    20 1   
     9     4    22 1   
    10     4    31 1   
    11     4    32 1   
    12     5     6 1   
    13     5     7 1   
    14     5     8 1   
    15     5    22 1   
    16     6    23 1   
    17     6    24 1   
    18     6    25 1   
    19     7    21 2   
    20     7    48 1   
    21     8    36 1   
    22     8    37 1   
    23     8    38 1   
    24     9    10 ar  
    25     9    13 ar  
    26     9    14 1   
    27    10    11 ar  
    28    10    39 1   
    29    11    12 ar  
    30    11    51 1   
    31    12    26 ar  
    32    12    50 1   
    33    13    26 ar  
    34    13    40 1   
    35    14    28 3   
    36    15    16 ar  
    37    15    18 1   
    38    16    17 ar  
    39    16    20 1   
    40    17    41 1   
    41    19    42 1   
    42    19    50 1   
    43    20    21 1   
    44    20    49 1   
    45    27    50 2   
    46    33    49 1   
    47    34    49 1   
    48    35    49 1   
    49    43    48 1   
    50    44    48 1   
    51    45    51 1   
    52    46    51 1   
    53    47    51 1   
@<TRIPOS>SUBSTRUCTURE
     1 SLK         1 TEMP              0 ****  ****    0 ROOT
