@<TRIPOS>MOLECULE
SLL
   32    31     1     0     0
SMALL
abcg2


@<TRIPOS>ATOM
      1 C          -13.2090     3.5680   -71.3080 c2         1 SLL       0.363000
      2 N          -12.4150     5.7980   -72.0420 n2         1 SLL      -0.560000
      3 O          -14.0710     3.5030   -72.2060 o          1 SLL      -0.616000
      4 CA         -12.7580     4.9860   -70.8770 c3         1 SLL      -0.076000
      5 CB         -13.8820     5.6880   -70.1160 c3         1 SLL      -0.147000
      6 CD         -15.3410     5.7790   -68.0510 c3         1 SLL      -0.175000
      7 CE         -15.8430     5.0270   -66.8290 c3         1 SLL      -0.025000
      8 CG         -14.3310     4.9670   -68.8510 c3         1 SLL      -0.151000
      9 CK         -18.5220     6.2860   -64.4520 c3         1 SLL      -0.718000
     10 CL         -19.9140     5.6660   -64.5160 cl         1 SLL       1.484000
     11 CP         -21.0260     6.5110   -63.8580 c2         1 SLL      -0.061000
     12 CX         -17.4770     5.3590   -65.0290 c2         1 SLL       0.306000
     13 OX         -17.2450     4.2560   -64.5430 o          1 SLL      -0.380000
     14 NZ         -16.8280     5.8100   -66.1130 ns         1 SLL      -0.355000
     15 OP1        -20.6730     7.3790   -63.0350 o          1 SLL      -0.481000
     16 OP2        -22.1940     6.2250   -64.1900 o          1 SLL      -0.481000
     17 OXT        -12.6880     2.6100   -70.7010 o          1 SLL      -0.616000
     18 H          -12.0390     6.6840   -71.7220 hn         1 SLL      -0.023000
     19 HA         -11.9100     4.8700   -70.1860 h1         1 SLL      -0.004000
     20 HB         -13.5470     6.6970   -69.8490 hc         1 SLL       0.044500
     21 HBA        -14.7340     5.8140   -70.7910 hc         1 SLL       0.044500
     22 HD         -16.1920     6.0350   -68.6910 hc         1 SLL       0.065000
     23 HDA        -14.8890     6.7250   -67.7390 hc         1 SLL       0.065000
     24 HE         -16.2820     4.0740   -67.1390 h1         1 SLL       0.093500
     25 HEA        -15.0030     4.7870   -66.1700 h1         1 SLL       0.093500
     26 HG         -14.7770     4.0020   -69.1110 hc         1 SLL       0.084500
     27 HGA        -13.4630     4.7440   -68.2230 hc         1 SLL       0.084500
     28 HK         -18.5160     7.2500   -64.9660 h1         1 SLL       0.168000
     29 HKA        -18.2590     6.4850   -63.4120 h1         1 SLL       0.168000
     30 HL         -20.1870     5.4600   -65.5540 ha         1 SLL      -0.208000
     31 HLA        -19.8970     4.6920   -64.0160 ha         1 SLL      -0.208000
     32 HNZ        -17.0760     6.7120   -66.4860 hn         1 SLL       0.223000
@<TRIPOS>BOND
     1     1     3 1   
     2     1     4 1   
     3     1    17 1   
     4     2     4 1   
     5     2    18 1   
     6     4     5 1   
     7     4    19 1   
     8     5     8 1   
     9     5    20 1   
    10     5    21 1   
    11     6     7 1   
    12     6     8 1   
    13     6    22 1   
    14     6    23 1   
    15     7    14 1   
    16     7    24 1   
    17     7    25 1   
    18     8    26 1   
    19     8    27 1   
    20     9    10 1   
    21     9    12 1   
    22     9    28 1   
    23     9    29 1   
    24    10    11 1   
    25    10    30 1   
    26    10    31 1   
    27    11    15 1   
    28    11    16 1   
    29    12    13 1   
    30    12    14 1   
    31    14    32 1   
@<TRIPOS>SUBSTRUCTURE
     1 SLL         1 TEMP              0 ****  ****    0 ROOT
