@<TRIPOS>MOLECULE
SLL
   32    31     1     0     0
SMALL
No Charge or Current Charge


@<TRIPOS>ATOM
      1 C          -13.0420     3.6060   -70.9890 c          1 SLL       0.363000
      2 N          -12.6120     5.9820   -71.5600 n2         1 SLL      -0.560000
      3 O          -14.0060     3.2850   -71.6780 o          1 SLL      -0.616000
      4 CA         -12.8680     5.0460   -70.4490 c3         1 SLL      -0.076000
      5 CB         -14.0750     5.5520   -69.6120 c3         1 SLL      -0.147000
      6 CD         -15.5280     5.2450   -67.5040 c3         1 SLL      -0.175000
      7 CE         -15.7700     4.4260   -66.2220 c3         1 SLL      -0.025000
      8 CG         -14.3260     4.7290   -68.3260 c3         1 SLL      -0.151000
      9 CK         -18.4530     5.1860   -63.6570 c3         1 SLL      -0.718000
     10 Cl         -18.4170     5.3340   -61.7950 cl         1 SLL       1.484000
     11 CP         -20.0490     6.2480   -61.7810 c          1 SLL      -0.061000
     12 CX         -17.2040     4.5590   -64.1600 c          1 SLL       0.306000
     13 OX         -16.6290     3.6570   -63.5690 o          1 SLL      -0.380000
     14 NZ         -16.9100     4.9440   -65.4640 ns         1 SLL      -0.355000
     15 OP1        -20.0850     7.4850   -61.7960 o          1 SLL      -0.481000
     16 OP2        -21.1210     5.6310   -61.7450 o          1 SLL      -0.481000
     17 OXT        -12.2120     2.7400   -70.7310 o          1 SLL      -0.616000
     18 H          -12.0260     6.7990   -71.3820 hn         1 SLL      -0.023000
     19 HA         -11.9930     5.0590   -69.7840 h1         1 SLL      -0.004000
     20 HB         -13.9010     6.5970   -69.3260 hc         1 SLL       0.044500
     21 HBA        -14.9820     5.5410   -70.2300 hc         1 SLL       0.044500
     22 HD         -16.4320     5.2150   -68.1270 hc         1 SLL       0.065000
     23 HDA        -15.3590     6.2950   -67.2340 hc         1 SLL       0.065000
     24 HE         -15.9660     3.3760   -66.4800 h1         1 SLL       0.093500
     25 HEA        -14.8750     4.4600   -65.5850 h1         1 SLL       0.093500
     26 HG         -14.4980     3.6780   -68.5930 hc         1 SLL       0.084500
     27 HGA        -13.4230     4.7520   -67.7020 hc         1 SLL       0.084500
     28 HK         -19.3310     4.5730   -63.8910 h1         1 SLL       0.168000
     29 HKA        -18.5860     6.2090   -64.0300 h1         1 SLL       0.168000
     30 HL         -21.4920    11.3150   -75.7290 ha         1 SLL      -0.208000
     31 HLA        -21.4900    11.3140   -75.7290 ha         1 SLL      -0.208000
     32 HNZ        -17.5270     5.6130   -65.9120 hn         1 SLL       0.223000
@<TRIPOS>BOND
     1     1     3 1   
     2     1     4 1   
     3     1    17 1   
     4     2     4 1   
     5     2    18 1   
     6     4     5 1   
     7     4    19 1   
     8     5     8 1   
     9     5    20 1   
    10     5    21 1   
    11     6     7 1   
    12     6     8 1   
    13     6    22 1   
    14     6    23 1   
    15     7    14 1   
    16     7    24 1   
    17     7    25 1   
    18     8    26 1   
    19     8    27 1   
    20     9    10 1   
    21     9    12 1   
    22     9    28 1   
    23     9    29 1   
    24    10    11 1   
    25    10    30 1   
    26    10    31 1   
    27    11    15 1   
    28    11    16 1   
    29    12    13 1   
    30    12    14 1   
    31    14    32 1   
@<TRIPOS>SUBSTRUCTURE
     1 SLL         1 TEMP              0 ****  ****    0 ROOT
