@<TRIPOS>MOLECULE
SLM
   41    41     1     0     0
SMALL
No Charge or Current Charge


@<TRIPOS>ATOM
      1 C1           1.3490     3.3480     0.5200 c          1 SLM       0.589100
      2 C2           0.4550     2.2110    -0.1680 c6         1 SLM       0.323000
      3 C3          -1.0690     2.4460     0.0390 c6         1 SLM      -0.129400
      4 C4          -1.9200     1.2650    -0.4910 c6         1 SLM       0.160300
      5 C5          -1.4160    -0.0950     0.0820 c6         1 SLM       0.083700
      6 C6           0.1020    -0.2360    -0.2320 c6         1 SLM       0.135300
      7 C7           0.7430    -1.5140     0.4110 c3         1 SLM       0.152300
      8 C8           2.1040    -1.9170    -0.2380 c3         1 SLM       0.133300
      9 C9           2.7480    -3.1700     0.4170 c3         1 SLM       0.130600
     10 C11         -3.9080    -2.9550    -0.6730 c3         1 SLM      -0.181100
     11 N5          -2.1930    -1.2290    -0.4740 ns         1 SLM      -0.504900
     12 O1A          2.4330     3.1250     1.0430 o          1 SLM      -0.570100
     13 O2           0.7330     2.2010    -1.5740 oh         1 SLM      -0.685000
     14 O4          -3.2990     1.4880    -0.1590 oh         1 SLM      -0.640000
     15 O6           0.8290     0.9000     0.3190 os         1 SLM      -0.463000
     16 O7           0.9310    -1.2860     1.8220 oh         1 SLM      -0.704000
     17 O8           1.9320    -2.2030    -1.6370 oh         1 SLM      -0.644000
     18 O9           3.9100    -3.5750    -0.3330 oh         1 SLM      -0.711000
     19 N1           0.8810     4.6250     0.5070 nt         1 SLM      -0.604000
     20 O10         -3.5380    -1.6520     1.3210 o          1 SLM      -0.582100
     21 H11N         0.0060     4.8420     0.0540 hn         1 SLM       0.323500
     22 H12N         1.4350     5.3560     0.9280 hn         1 SLM       0.323500
     23 H31C        -1.2660     2.5890     1.1100 hc         1 SLM       0.075700
     24 H32C        -1.3820     3.3700    -0.4650 hc         1 SLM       0.075700
     25 H2           1.6570     1.8790    -1.6480 ho         1 SLM       0.468000
     26 H4          -1.8130     1.2280    -1.5850 h1         1 SLM       0.037700
     27 H5          -1.5400    -0.0780     1.1750 h1         1 SLM       0.122700
     28 HA          -3.6120     2.2280    -0.7230 ho         1 SLM       0.443000
     29 H6           0.2410    -0.2760    -1.3220 h1         1 SLM       0.056700
     30 HB          -2.0190    -1.5040    -1.4340 hn         1 SLM       0.303500
     31 H7           0.0550    -2.3570     0.2600 h1         1 SLM       0.074700
     32 H8           2.8030    -1.0780    -0.1110 h1         1 SLM       0.098700
     33 HC           1.1210    -0.3180     1.8870 ho         1 SLM       0.526000
     34 H91C         3.0270    -2.9350     1.4530 h1         1 SLM       0.030200
     35 H92C         2.0100    -3.9840     0.4470 h1         1 SLM       0.030200
     36 HD           2.6880    -2.8000    -1.8490 ho         1 SLM       0.435000
     37 H9           4.3280    -4.3220     0.1580 ho         1 SLM       0.503000
     38 H111        -4.2770    -2.4970    -1.5980 hc         1 SLM       0.059033
     39 H112        -3.1560    -3.6590    -1.0460 hc         1 SLM       0.059033
     40 H113        -4.7080    -3.4680    -0.1290 hc         1 SLM       0.059033
     41 C10         -3.2170    -1.8880     0.1660 c          1 SLM       0.608100
@<TRIPOS>BOND
     1     1     2 1   
     2     1    12 2   
     3     1    19 1   
     4     2     3 1   
     5     2    13 1   
     6     2    15 1   
     7     3     4 1   
     8     3    23 1   
     9     3    24 1   
    10     4     5 1   
    11     4    14 1   
    12     4    26 1   
    13     5     6 1   
    14     5    11 1   
    15     5    27 1   
    16     6     7 1   
    17     6    15 1   
    18     6    29 1   
    19     7     8 1   
    20     7    16 1   
    21     7    31 1   
    22     8     9 1   
    23     8    17 1   
    24     8    32 1   
    25     9    18 1   
    26     9    34 1   
    27     9    35 1   
    28    10    38 1   
    29    10    39 1   
    30    10    40 1   
    31    10    41 1   
    32    11    30 1   
    33    11    41 1   
    34    13    25 1   
    35    14    28 1   
    36    16    33 1   
    37    17    36 1   
    38    18    37 1   
    39    19    21 1   
    40    19    22 1   
    41    20    41 2   
@<TRIPOS>SUBSTRUCTURE
     1 SLM         1 TEMP              0 ****  ****    0 ROOT
