@<TRIPOS>MOLECULE
SLM
   41    41     1     0     0
SMALL
abcg2


@<TRIPOS>ATOM
      1 C1           1.2260     3.1270     0.6390 c          1 SLM       0.589100
      2 C2           0.3560     2.1430    -0.1750 c6         1 SLM       0.323000
      3 C3          -1.1100     2.3660     0.1890 c6         1 SLM      -0.129400
      4 C4          -1.9920     1.2500    -0.3610 c6         1 SLM       0.160300
      5 C5          -1.4470    -0.1010     0.0920 c6         1 SLM       0.083700
      6 C6           0.0370    -0.2230    -0.2850 c6         1 SLM       0.135300
      7 C7           0.6910    -1.4630     0.3210 c3         1 SLM       0.152300
      8 C8           2.1310    -1.6680    -0.1900 c3         1 SLM       0.133300
      9 C9           2.7090    -2.9690     0.3450 c3         1 SLM       0.130600
     10 C11         -3.7190    -3.0360    -0.6820 c3         1 SLM      -0.181100
     11 N5          -2.1890    -1.1820    -0.5040 ns         1 SLM      -0.504900
     12 O1A          1.5640     2.8690     1.7810 o          1 SLM      -0.570100
     13 O2           0.4780     2.3320    -1.5520 oh         1 SLM      -0.685000
     14 O4          -3.3140     1.3580     0.1070 oh         1 SLM      -0.640000
     15 O6           0.7810     0.8750     0.2120 os         1 SLM      -0.463000
     16 O7           0.6480    -1.4230     1.7270 oh         1 SLM      -0.704000
     17 O8           2.1920    -1.6110    -1.5970 oh         1 SLM      -0.644000
     18 O9           4.0570    -3.0630    -0.0540 oh         1 SLM      -0.711000
     19 N1           1.5040     4.2710     0.0080 nt         1 SLM      -0.604000
     20 O10         -3.1570    -1.9760     1.3820 o          1 SLM      -0.582100
     21 H11N         1.2050     4.4460    -0.9360 hn         1 SLM       0.323500
     22 H12N         2.0220     4.9960     0.4770 hn         1 SLM       0.323500
     23 H31C        -1.2010     2.3890     1.2780 hc         1 SLM       0.075700
     24 H32C        -1.4420     3.3380    -0.1860 hc         1 SLM       0.075700
     25 H2           1.3800     2.1290    -1.8310 ho         1 SLM       0.468000
     26 H4          -1.9690     1.2820    -1.4600 h1         1 SLM       0.037700
     27 H5          -1.5510    -0.1790     1.1760 h1         1 SLM       0.122700
     28 HA          -3.7240     2.1180    -0.3180 ho         1 SLM       0.443000
     29 H6           0.1160    -0.2820    -1.3780 h1         1 SLM       0.056700
     30 HB          -2.1620    -1.2600    -1.5090 hn         1 SLM       0.303500
     31 H7           0.0970    -2.3330     0.0190 h1         1 SLM       0.074700
     32 H8           2.7530    -0.8400     0.1680 h1         1 SLM       0.098700
     33 HC           1.0670    -0.6030     2.0150 ho         1 SLM       0.526000
     34 H91C         2.6080    -2.9860     1.4350 h1         1 SLM       0.030200
     35 H92C         2.1130    -3.8100    -0.0440 h1         1 SLM       0.030200
     36 HD           1.7380    -2.3810    -1.9580 ho         1 SLM       0.435000
     37 H9           4.4290    -3.8540     0.3440 ho         1 SLM       0.503000
     38 H111        -3.5220    -2.9360    -1.7480 hc         1 SLM       0.059033
     39 H112        -3.4190    -4.0370    -0.3700 hc         1 SLM       0.059033
     40 H113        -4.7930    -2.9550    -0.5190 hc         1 SLM       0.059033
     41 C10         -3.0050    -2.0150     0.1700 c          1 SLM       0.608100
@<TRIPOS>BOND
     1     1     2 1   
     2     1    12 2   
     3     1    19 1   
     4     2     3 1   
     5     2    13 1   
     6     2    15 1   
     7     3     4 1   
     8     3    23 1   
     9     3    24 1   
    10     4     5 1   
    11     4    14 1   
    12     4    26 1   
    13     5     6 1   
    14     5    11 1   
    15     5    27 1   
    16     6     7 1   
    17     6    15 1   
    18     6    29 1   
    19     7     8 1   
    20     7    16 1   
    21     7    31 1   
    22     8     9 1   
    23     8    17 1   
    24     8    32 1   
    25     9    18 1   
    26     9    34 1   
    27     9    35 1   
    28    10    38 1   
    29    10    39 1   
    30    10    40 1   
    31    10    41 1   
    32    11    30 1   
    33    11    41 1   
    34    13    25 1   
    35    14    28 1   
    36    16    33 1   
    37    17    36 1   
    38    18    37 1   
    39    19    21 1   
    40    19    22 1   
    41    20    41 2   
@<TRIPOS>SUBSTRUCTURE
     1 SLM         1 TEMP              0 ****  ****    0 ROOT
