@<TRIPOS>MOLECULE
SLO
   42    44     1     0     0
SMALL
No Charge or Current Charge


@<TRIPOS>ATOM
      1 F           -2.8530    -4.3010    -0.0360 f          1 SLO      -0.191000
      2 S            5.7000    -0.0680     0.0110 sy         1 SLO       1.062500
      3 C1          -3.5110     0.5800     0.5690 cc         1 SLO       0.072600
      4 O1          -6.1960    -0.3370    -0.8140 o          1 SLO      -0.716500
      5 C2          -1.3000     1.0300     0.1130 cd         1 SLO       0.071800
      6 O2          -6.0760     1.8130    -0.8300 o          1 SLO      -0.716500
      7 C3          -2.5840     1.6160     0.4230 cd         1 SLO      -0.178200
      8 O3           5.8090    -1.3260     0.7630 o          1 SLO      -0.533500
      9 C4          -2.7920    -0.6670     0.3160 ca         1 SLO      -0.002800
     10 O4           6.2470     0.0580    -1.3460 o          1 SLO      -0.533500
     11 C5          -1.4660    -0.4090     0.0360 ca         1 SLO      -0.108800
     12 C6          -4.9730     0.6830     0.9330 c3         1 SLO      -0.200200
     13 C7          -0.1330     1.7540    -0.0150 ce         1 SLO      -0.224200
     14 C8          -3.2900    -1.9810     0.3020 ca         1 SLO      -0.099000
     15 C9          -0.5700    -1.4360    -0.3100 ca         1 SLO      -0.063000
     16 C10         -2.8500     3.0960     0.5890 c3         1 SLO      -0.017900
     17 C11          1.2760     1.2910    -0.0160 ca         1 SLO       0.045200
     18 C12         -2.4030    -3.0270    -0.0120 ca         1 SLO       0.166000
     19 C13         -1.0520    -2.7600    -0.3220 ca         1 SLO      -0.178000
     20 C14          2.1620     1.7470    -1.0060 ca         1 SLO      -0.131500
     21 C15          1.7490     0.4380     0.9970 ca         1 SLO      -0.131500
     22 C16          3.9730     0.4590    -0.0010 ca         1 SLO      -0.283500
     23 C17         -5.8540     0.7260    -0.3180 c          1 SLO       0.725000
     24 C18          3.5050     1.3320    -1.0060 ca         1 SLO      -0.020000
     25 C19          3.0900     0.0170     1.0050 ca         1 SLO      -0.020000
     26 C20          6.5010     1.1910     1.0040 c3         1 SLO      -0.341100
     27 H6          -5.2090    -0.2110     1.5210 hc         1 SLO       0.040700
     28 H6A         -5.0990     1.6040     1.5120 hc         1 SLO       0.040700
     29 H7          -0.2350     2.8380     0.0070 ha         1 SLO       0.184000
     30 H8          -4.3330    -2.1920     0.5150 ha         1 SLO       0.155000
     31 H9           0.4610    -1.2280    -0.5810 ha         1 SLO       0.111000
     32 H10         -2.4060     3.4710     1.5190 hc         1 SLO       0.031367
     33 H10A        -2.4240     3.6690    -0.2420 hc         1 SLO       0.031367
     34 H10B        -3.9200     3.3260     0.6150 hc         1 SLO       0.031367
     35 H13         -0.3860    -3.5790    -0.5810 ha         1 SLO       0.118000
     36 H14          1.8080     2.4210    -1.7820 ha         1 SLO       0.126000
     37 H15          1.0730     0.0990     1.7780 ha         1 SLO       0.126000
     38 H18          4.1760     1.6930    -1.7840 ha         1 SLO       0.128500
     39 H19          3.4350    -0.6470     1.7960 ha         1 SLO       0.128500
     40 H20          7.5670     0.9500     1.0670 h1         1 SLO       0.098367
     41 H20A         6.3510     2.1590     0.5150 h1         1 SLO       0.098367
     42 H20B         6.0420     1.1850     1.9980 h1         1 SLO       0.098367
@<TRIPOS>BOND
     1     1    18 1   
     2     2     8 2   
     3     2    10 2   
     4     2    22 1   
     5     2    26 1   
     6     3     7 2   
     7     3     9 1   
     8     3    12 1   
     9     4    23 1   
    10     5     7 1   
    11     5    11 1   
    12     5    13 2   
    13     6    23 1   
    14     7    16 1   
    15     9    11 ar  
    16     9    14 ar  
    17    11    15 ar  
    18    12    23 1   
    19    12    27 1   
    20    12    28 1   
    21    13    17 1   
    22    13    29 1   
    23    14    18 ar  
    24    14    30 1   
    25    15    19 ar  
    26    15    31 1   
    27    16    32 1   
    28    16    33 1   
    29    16    34 1   
    30    17    20 ar  
    31    17    21 ar  
    32    18    19 ar  
    33    19    35 1   
    34    20    24 ar  
    35    20    36 1   
    36    21    25 ar  
    37    21    37 1   
    38    22    24 ar  
    39    22    25 ar  
    40    24    38 1   
    41    25    39 1   
    42    26    40 1   
    43    26    41 1   
    44    26    42 1   
@<TRIPOS>SUBSTRUCTURE
     1 SLO         1 TEMP              0 ****  ****    0 ROOT
