@<TRIPOS>MOLECULE
SLO
   42    44     1     0     0
SMALL
bcc


@<TRIPOS>ATOM
      1 F           -2.9760    -4.2300    -0.0550 f          1 SLO      -0.155900
      2 S            5.6690     0.0990    -0.1900 sy         1 SLO       1.093300
      3 C1          -3.4820     0.6170     0.5370 cc         1 SLO       0.072600
      4 O1          -7.0370     0.4750    -0.3140 o          1 SLO      -0.821800
      5 C2          -1.2190     1.0090     0.2720 cd         1 SLO       0.071800
      6 O2          -5.2050     0.2360    -1.5630 o          1 SLO      -0.821800
      7 C3          -2.5540     1.5990     0.4820 cd         1 SLO      -0.178200
      8 O3           5.7850    -1.2900     0.2480 o          1 SLO      -0.604300
      9 C4          -2.8090    -0.6660     0.3300 ca         1 SLO      -0.002800
     10 O4           6.1540     0.4610    -1.5200 o          1 SLO      -0.604300
     11 C5          -1.4300    -0.4470     0.1600 ca         1 SLO      -0.108800
     12 C6          -4.9430     0.7260     0.7660 c3         1 SLO      -0.200200
     13 C7          -0.1010     1.7520     0.1950 ce         1 SLO      -0.174200
     14 C8          -3.3510    -1.9370     0.2600 ca         1 SLO      -0.117000
     15 C9          -0.5970    -1.5120    -0.1330 ca         1 SLO      -0.081000
     16 C10         -2.7720     3.0650     0.6250 c3         1 SLO      -0.017900
     17 C11          1.2930     1.3110     0.1030 ca         1 SLO       0.045200
     18 C12         -2.4790    -2.9830     0.0050 ca         1 SLO       0.130900
     19 C13         -1.1260    -2.8000    -0.2070 ca         1 SLO      -0.196000
     20 C14          2.1480     1.9460    -0.8010 ca         1 SLO      -0.149500
     21 C15          1.8160     0.3260     0.9440 ca         1 SLO      -0.149500
     22 C16          3.9640     0.5760    -0.0730 ca         1 SLO      -0.283500
     23 C17         -5.8050     0.4500    -0.4960 c          1 SLO       0.935600
     24 C18          3.4770     1.5770    -0.9030 ca         1 SLO      -0.038000
     25 C19          3.1440    -0.0500     0.8550 ca         1 SLO      -0.038000
     26 C20          6.4850     1.1330     1.0040 c3         1 SLO      -0.230300
     27 H6          -5.2520     0.0240     1.5490 hc         1 SLO       0.040700
     28 H6A         -5.2020     1.7170     1.1470 hc         1 SLO       0.040700
     29 H7          -0.2280     2.8300     0.1960 ha         1 SLO       0.134000
     30 H8          -4.4090    -2.1200     0.3950 ha         1 SLO       0.173000
     31 H9           0.4600    -1.3790    -0.3110 ha         1 SLO       0.129000
     32 H10         -2.1830     3.4820     1.4460 hc         1 SLO       0.031367
     33 H10A        -2.4790     3.6030    -0.2800 hc         1 SLO       0.031367
     34 H10B        -3.8170     3.2970     0.8200 hc         1 SLO       0.031367
     35 H13         -0.4890    -3.6460    -0.4270 ha         1 SLO       0.136000
     36 H14          1.7630     2.7300    -1.4410 ha         1 SLO       0.144000
     37 H15          1.1820    -0.1440     1.6830 ha         1 SLO       0.144000
     38 H18          4.1200     2.0670    -1.6220 ha         1 SLO       0.146500
     39 H19          3.5290    -0.8220     1.5090 ha         1 SLO       0.146500
     40 H20          7.5500     0.9060     0.9560 h1         1 SLO       0.098367
     41 H20A         6.3150     2.1780     0.7530 h1         1 SLO       0.098367
     42 H20B         6.1010     0.9130     1.9970 h1         1 SLO       0.098367
@<TRIPOS>BOND
     1     1    18 1   
     2     2     8 2   
     3     2    10 2   
     4     2    22 1   
     5     2    26 1   
     6     3     7 2   
     7     3     9 1   
     8     3    12 1   
     9     4    23 1   
    10     5     7 1   
    11     5    11 1   
    12     5    13 2   
    13     6    23 1   
    14     7    16 1   
    15     9    11 ar  
    16     9    14 ar  
    17    11    15 ar  
    18    12    23 1   
    19    12    27 1   
    20    12    28 1   
    21    13    17 1   
    22    13    29 1   
    23    14    18 ar  
    24    14    30 1   
    25    15    19 ar  
    26    15    31 1   
    27    16    32 1   
    28    16    33 1   
    29    16    34 1   
    30    17    20 ar  
    31    17    21 ar  
    32    18    19 ar  
    33    19    35 1   
    34    20    24 ar  
    35    20    36 1   
    36    21    25 ar  
    37    21    37 1   
    38    22    24 ar  
    39    22    25 ar  
    40    24    38 1   
    41    25    39 1   
    42    26    40 1   
    43    26    41 1   
    44    26    42 1   
@<TRIPOS>SUBSTRUCTURE
     1 SLO         1 TEMP              0 ****  ****    0 ROOT
