@<TRIPOS>MOLECULE
SLP
   11    10     1     0     0
SMALL
bcc


@<TRIPOS>ATOM
      1 SE           1.8180    -0.0930     0.0380 sh         1 SLP      -0.639900
      2 O1          -2.7060     1.2080     0.0320 o          1 SLP      -0.838300
      3 C2          -0.0130     0.6500     0.0180 c3         1 SLP       0.184700
      4 O2          -3.3440    -0.9270    -0.0020 o          1 SLP      -0.838300
      5 C6          -1.0180    -0.4850     0.0180 c3         1 SLP      -0.225400
      6 C7          -2.4900    -0.0180     0.0150 c          1 SLP       0.933600
      7 HSE          2.5070     1.1890     0.0370 hs         1 SLP       0.235800
      8 H2          -0.1350     1.2840     0.8960 h1         1 SLP       0.055700
      9 H2A         -0.1190     1.2730    -0.8690 h1         1 SLP       0.055700
     10 H6          -0.8660    -1.1330    -0.8520 hc         1 SLP       0.038200
     11 H6A         -0.8710    -1.1280     0.8920 hc         1 SLP       0.038200
@<TRIPOS>BOND
     1     1     3 1   
     2     1     7 1   
     3     2     6 1   
     4     3     5 1   
     5     3     8 1   
     6     3     9 1   
     7     4     6 1   
     8     5     6 1   
     9     5    10 1   
    10     5    11 1   
@<TRIPOS>SUBSTRUCTURE
     1 SLP         1 TEMP              0 ****  ****    0 ROOT
