@<TRIPOS>MOLECULE
SLP
   11    10     1     0     0
SMALL
No Charge or Current Charge


@<TRIPOS>ATOM
      1 SE           1.7590     0.0250     0.0620 sh         1 SLP      -0.687800
      2 O1          -2.9280     0.6700     0.9950 o          1 SLP      -0.733000
      3 C2          -0.0150     0.5430    -0.1550 c3         1 SLP       0.232600
      4 O2          -2.9460    -0.2120    -0.9700 o          1 SLP      -0.733000
      5 C6          -1.0030    -0.5240     0.3330 c3         1 SLP      -0.225400
      6 C7          -2.4170     0.0050     0.1080 c          1 SLP       0.723000
      7 HSE          2.2960     1.1630    -0.4540 hs         1 SLP       0.235800
      8 H2          -0.1760     1.4770     0.4010 h1         1 SLP       0.055700
      9 H2A         -0.1910     0.7490    -1.2200 h1         1 SLP       0.055700
     10 H6          -0.8150    -1.4150    -0.2780 hc         1 SLP       0.038200
     11 H6A         -0.8000    -0.6610     1.4010 hc         1 SLP       0.038200
@<TRIPOS>BOND
     1     1     3 1   
     2     1     7 1   
     3     2     6 1   
     4     3     5 1   
     5     3     8 1   
     6     3     9 1   
     7     4     6 1   
     8     5     6 1   
     9     5    10 1   
    10     5    11 1   
@<TRIPOS>SUBSTRUCTURE
     1 SLP         1 TEMP              0 ****  ****    0 ROOT
