@<TRIPOS>MOLECULE
SLQ
   61    64     1     0     0
SMALL
abcg2


@<TRIPOS>ATOM
      1 N1          -1.9590    -0.6990    -0.1470 nb         1 SLQ      -0.361000
      2 O1          -4.2390    -3.8680    -1.7510 oh         1 SLQ      -0.663000
      3 C2          -3.2850    -0.6850     0.0640 ca         1 SLQ       0.442900
      4 N2          -3.8740    -1.8750     0.3130 nu         1 SLQ      -0.917100
      5 N3          -4.0880     0.3840     0.0620 nb         1 SLQ      -0.299000
      6 C4          -3.4180     1.5100    -0.1540 ca         1 SLQ       0.168500
      7 C5          -2.0530     1.6440    -0.3590 ca         1 SLQ      -0.145600
      8 C6          -1.3170     0.4430    -0.3600 ca         1 SLQ       0.474900
      9 N6           0.0110     0.4270    -0.5670 nu         1 SLQ      -0.910100
     10 N7          -1.7140     2.9600    -0.5510 nc         1 SLQ      -0.546100
     11 C8          -2.8440     3.5970    -0.4600 cd         1 SLQ       0.388700
     12 N9          -3.9170     2.7760    -0.2310 na         1 SLQ      -0.288300
     13 C1           2.2270    -0.5640    -0.5720 ca         1 SLQ      -0.101300
     14 C10         -5.5720     3.4170     1.4580 c3         1 SLQ      -0.107600
     15 C11         -5.6910     4.3460    -0.8850 c3         1 SLQ      -0.107600
     16 C12         -3.2040    -3.1570     0.2890 c3         1 SLQ       0.256500
     17 C13         -3.9660    -4.1500     1.1650 c3         1 SLQ      -0.086400
     18 C14         -4.0670    -3.7190     2.6220 c3         1 SLQ      -0.089100
     19 C15         -2.9890    -3.6750    -1.1270 c3         1 SLQ       0.135600
     20 C1B          6.4260     0.0440     0.0860 cp         1 SLQ       0.407500
     21 N1B          6.8300     0.0370     1.3560 nb         1 SLQ      -0.673000
     22 C7           2.7030    -0.1010     0.6530 ca         1 SLQ      -0.103000
     23 C2B          7.3220     0.2570    -0.9640 ca         1 SLQ      -0.153000
     24 C3           4.0560     0.0890     0.8630 ca         1 SLQ      -0.085000
     25 C3B          8.6630     0.4450    -0.6770 ca         1 SLQ      -0.073000
     26 C16          4.9820    -0.1680    -0.1530 cp         1 SLQ      -0.140500
     27 C4B          9.0780     0.4250     0.6460 ca         1 SLQ      -0.165000
     28 C17          4.5040    -0.6330    -1.3760 ca         1 SLQ      -0.085000
     29 C5B          8.1150     0.2220     1.6230 ca         1 SLQ       0.343900
     30 C18          3.1460    -0.8250    -1.5810 ca         1 SLQ      -0.103000
     31 CA           0.7580    -0.7910    -0.7920 c3         1 SLQ       0.270100
     32 HO1         -4.0800    -4.1760    -2.6470 ho         1 SLQ       0.441000
     33 HN2         -4.8800    -1.8660     0.3470 hn         1 SLQ       0.507000
     34 HN6          0.4280     1.2890    -0.8830 hn         1 SLQ       0.511000
     35 H8          -2.9600     4.6650    -0.5550 h5         1 SLQ       0.061800
     36 H9          -5.8990     2.2930    -0.3350 h1         1 SLQ       0.083700
     37 H10         -5.3250     2.5450     2.0630 hc         1 SLQ       0.046367
     38 H10A        -4.9820     4.2620     1.8140 hc         1 SLQ       0.046367
     39 H10B        -6.6250     3.6500     1.6160 hc         1 SLQ       0.046367
     40 H11         -5.4580     4.1710    -1.9360 hc         1 SLQ       0.046367
     41 H11A        -6.7630     4.5200    -0.8030 hc         1 SLQ       0.046367
     42 H11B        -5.1880     5.2600    -0.5660 hc         1 SLQ       0.046367
     43 H12         -2.2080    -3.0210     0.7190 h1         1 SLQ       0.076700
     44 H13         -4.9650    -4.3230     0.7570 hc         1 SLQ       0.050200
     45 H13A        -3.4450    -5.1090     1.1070 hc         1 SLQ       0.050200
     46 H14         -4.5390    -4.4950     3.2240 hc         1 SLQ       0.035367
     47 H14A        -3.0800    -3.5250     3.0470 hc         1 SLQ       0.035367
     48 H14B        -4.6600    -2.8110     2.7350 hc         1 SLQ       0.035367
     49 H15         -2.4160    -4.6110    -1.0660 h1         1 SLQ       0.030200
     50 H15A        -2.3710    -2.9540    -1.6750 h1         1 SLQ       0.030200
     51 H2           2.0050     0.1120     1.4550 ha         1 SLQ       0.119000
     52 H2B          6.9790     0.2900    -1.9880 ha         1 SLQ       0.124000
     53 H3           4.4050     0.4470     1.8220 ha         1 SLQ       0.124000
     54 H3B          9.3720     0.6120    -1.4770 ha         1 SLQ       0.119000
     55 H4B         10.1150     0.5670     0.9170 ha         1 SLQ       0.124000
     56 H5           5.1890    -0.8640    -2.1820 ha         1 SLQ       0.124000
     57 H5B          8.3950     0.2060     2.6710 h4         1 SLQ       0.019100
     58 H6           2.7990    -1.1900    -2.5410 ha         1 SLQ       0.119000
     59 HA           0.3870    -1.5520    -0.1040 h1         1 SLQ       0.058200
     60 HA'A         0.5880    -1.1780    -1.8020 h1         1 SLQ       0.058200
     61 C9          -5.3110     3.1560    -0.0190 c3         1 SLQ       0.097300
@<TRIPOS>BOND
     1     1     3 ar  
     2     1     8 ar  
     3     2    19 1   
     4     2    32 1   
     5     3     4 1   
     6     3     5 ar  
     7     4    16 1   
     8     4    33 1   
     9     5     6 ar  
    10     6     7 ar  
    11     6    12 1   
    12     7     8 ar  
    13     7    10 1   
    14     8     9 1   
    15     9    31 1   
    16     9    34 1   
    17    10    11 2   
    18    11    12 1   
    19    11    35 1   
    20    12    61 1   
    21    13    22 ar  
    22    13    30 ar  
    23    13    31 1   
    24    14    37 1   
    25    14    38 1   
    26    14    39 1   
    27    14    61 1   
    28    15    40 1   
    29    15    41 1   
    30    15    42 1   
    31    15    61 1   
    32    16    17 1   
    33    16    19 1   
    34    16    43 1   
    35    17    18 1   
    36    17    44 1   
    37    17    45 1   
    38    18    46 1   
    39    18    47 1   
    40    18    48 1   
    41    19    49 1   
    42    19    50 1   
    43    20    21 ar  
    44    20    23 ar  
    45    20    26 1   
    46    21    29 ar  
    47    22    24 ar  
    48    22    51 1   
    49    23    25 ar  
    50    23    52 1   
    51    24    26 ar  
    52    24    53 1   
    53    25    27 ar  
    54    25    54 1   
    55    26    28 ar  
    56    27    29 ar  
    57    27    55 1   
    58    28    30 ar  
    59    28    56 1   
    60    29    57 1   
    61    30    58 1   
    62    31    59 1   
    63    31    60 1   
    64    36    61 1   
@<TRIPOS>SUBSTRUCTURE
     1 SLQ         1 TEMP              0 ****  ****    0 ROOT
