@<TRIPOS>MOLECULE
SLQ
   61    64     1     0     0
SMALL
No Charge or Current Charge


@<TRIPOS>ATOM
      1 N1          -2.0000    -0.9750     0.2010 nb         1 SLQ      -0.361000
      2 O1          -4.7780    -3.6250    -2.0810 oh         1 SLQ      -0.663000
      3 C2          -3.3390    -0.8370     0.2080 ca         1 SLQ       0.442900
      4 N2          -4.1020    -1.9830     0.3120 nu         1 SLQ      -0.917100
      5 N3          -4.0410     0.3080     0.1280 nb         1 SLQ      -0.299000
      6 C4          -3.3110     1.4350     0.0290 ca         1 SLQ       0.168500
      7 C5          -1.9390     1.4150     0.0100 ca         1 SLQ      -0.145600
      8 C6          -1.2960     0.1640     0.1000 ca         1 SLQ       0.474900
      9 N6           0.0870     0.0750     0.0860 nu         1 SLQ      -0.910100
     10 N7          -1.3810     2.6890    -0.1000 nc         1 SLQ      -0.546100
     11 C8          -2.4760     3.4720    -0.1450 cd         1 SLQ       0.388700
     12 N9          -3.6790     2.7510    -0.0700 na         1 SLQ      -0.288300
     13 C1           2.3870    -0.7570     0.1220 ca         1 SLQ      -0.101300
     14 C10         -5.3590     4.1470     1.1290 c3         1 SLQ      -0.107600
     15 C11         -5.3980     3.9490    -1.4190 c3         1 SLQ      -0.107600
     16 C12         -3.6450    -3.3800     0.1350 c3         1 SLQ       0.256500
     17 C13         -4.5940    -4.3430     0.8960 c3         1 SLQ      -0.086400
     18 C14         -4.5720    -4.1740     2.4320 c3         1 SLQ      -0.089100
     19 C15         -3.5190    -3.7390    -1.3830 c3         1 SLQ       0.135600
     20 C1B          6.6140     0.3290    -0.0380 cp         1 SLQ       0.407500
     21 N1B          7.3420     0.1140     1.0850 nb         1 SLQ      -0.673000
     22 C7           3.0980    -0.4850     1.3040 ca         1 SLQ      -0.103000
     23 C2B          7.2140     0.8930    -1.1950 ca         1 SLQ      -0.153000
     24 C3           4.4590    -0.1380     1.2530 ca         1 SLQ      -0.085000
     25 C3B          8.5780     1.2240    -1.1920 ca         1 SLQ      -0.073000
     26 C16          5.1550    -0.0460     0.0160 cp         1 SLQ      -0.140500
     27 C4B          9.3120     0.9810    -0.0210 ca         1 SLQ      -0.165000
     28 C17          4.4170    -0.3290    -1.1660 ca         1 SLQ      -0.085000
     29 C5B          8.6570     0.4290     1.0910 ca         1 SLQ       0.343900
     30 C18          3.0560    -0.6770    -1.1130 ca         1 SLQ      -0.103000
     31 CA           0.9130    -1.1330     0.1770 c3         1 SLQ       0.270100
     32 HO1         -4.5970    -3.8050    -3.0310 ho         1 SLQ       0.441000
     33 HN2         -5.0960    -1.8230     0.1600 hn         1 SLQ       0.507000
     34 HN6          0.5630     0.9730     0.0090 hn         1 SLQ       0.511000
     35 H8          -2.4750     4.5530    -0.2310 h5         1 SLQ       0.061800
     36 H9          -5.7340     2.3740    -0.0090 h1         1 SLQ       0.083700
     37 H10         -5.1530     3.6110     2.0630 hc         1 SLQ       0.046367
     38 H10A        -4.7380     5.0510     1.1060 hc         1 SLQ       0.046367
     39 H10B        -6.4120     4.4530     1.1390 hc         1 SLQ       0.046367
     40 H11         -5.2190     3.2750    -2.2650 hc         1 SLQ       0.046367
     41 H11A        -6.4510     4.2530    -1.4440 hc         1 SLQ       0.046367
     42 H11B        -4.7790     4.8450    -1.5540 hc         1 SLQ       0.046367
     43 H12         -2.6480    -3.5020     0.5830 h1         1 SLQ       0.076700
     44 H13         -5.6220    -4.2180     0.5330 hc         1 SLQ       0.050200
     45 H13A        -4.3050    -5.3760     0.6620 hc         1 SLQ       0.050200
     46 H14         -5.2260    -4.9150     2.9060 hc         1 SLQ       0.035367
     47 H14A        -3.5570    -4.3140     2.8220 hc         1 SLQ       0.035367
     48 H14B        -4.9210    -3.1760     2.7240 hc         1 SLQ       0.035367
     49 H15         -3.1320    -4.7640    -1.4700 h1         1 SLQ       0.030200
     50 H15A        -2.7750    -3.0730    -1.8400 h1         1 SLQ       0.030200
     51 H2           2.5940    -0.5400     2.2670 ha         1 SLQ       0.119000
     52 H2B          6.6230     1.0890    -2.0830 ha         1 SLQ       0.124000
     53 H3           4.9760     0.0710     2.1870 ha         1 SLQ       0.124000
     54 H3B          9.0520     1.6590    -2.0700 ha         1 SLQ       0.119000
     55 H4B         10.3700     1.2200     0.0330 ha         1 SLQ       0.124000
     56 H5           4.9000    -0.2960    -2.1390 ha         1 SLQ       0.124000
     57 H5B          9.2000     0.2340     2.0150 h4         1 SLQ       0.019100
     58 H6           2.5200    -0.8870    -2.0360 ha         1 SLQ       0.119000
     59 HA           0.7050    -1.6660     1.1170 h1         1 SLQ       0.058200
     60 HA'A         0.6780    -1.8180    -0.6500 h1         1 SLQ       0.058200
     61 C9          -5.0680     3.2440    -0.0870 c3         1 SLQ       0.097300
@<TRIPOS>BOND
     1     1     3 ar  
     2     1     8 ar  
     3     2    19 1   
     4     2    32 1   
     5     3     4 1   
     6     3     5 ar  
     7     4    16 1   
     8     4    33 1   
     9     5     6 ar  
    10     6     7 ar  
    11     6    12 1   
    12     7     8 ar  
    13     7    10 1   
    14     8     9 1   
    15     9    31 1   
    16     9    34 1   
    17    10    11 2   
    18    11    12 1   
    19    11    35 1   
    20    12    61 1   
    21    13    22 ar  
    22    13    30 ar  
    23    13    31 1   
    24    14    37 1   
    25    14    38 1   
    26    14    39 1   
    27    14    61 1   
    28    15    40 1   
    29    15    41 1   
    30    15    42 1   
    31    15    61 1   
    32    16    17 1   
    33    16    19 1   
    34    16    43 1   
    35    17    18 1   
    36    17    44 1   
    37    17    45 1   
    38    18    46 1   
    39    18    47 1   
    40    18    48 1   
    41    19    49 1   
    42    19    50 1   
    43    20    21 ar  
    44    20    23 ar  
    45    20    26 1   
    46    21    29 ar  
    47    22    24 ar  
    48    22    51 1   
    49    23    25 ar  
    50    23    52 1   
    51    24    26 ar  
    52    24    53 1   
    53    25    27 ar  
    54    25    54 1   
    55    26    28 ar  
    56    27    29 ar  
    57    27    55 1   
    58    28    30 ar  
    59    28    56 1   
    60    29    57 1   
    61    30    58 1   
    62    31    59 1   
    63    31    60 1   
    64    36    61 1   
@<TRIPOS>SUBSTRUCTURE
     1 SLQ         1 TEMP              0 ****  ****    0 ROOT
