@<TRIPOS>MOLECULE
SLR
   32    32     1     0     0
SMALL
bcc


@<TRIPOS>ATOM
      1 O7           1.1910    -2.5740    -0.0900 o          1 SLR      -0.814800
      2 C1           0.5020    -0.2210     1.2760 c5         1 SLR       0.131100
      3 C2           1.6470     0.8010     1.2620 c5         1 SLR      -0.183700
      4 C3           1.5880     1.4370    -0.1110 c          1 SLR       0.706500
      5 N4           0.7000     0.7540    -0.8450 ns         1 SLR      -0.528900
      6 C5           0.1100    -0.4100    -0.2090 c5         1 SLR      -0.053600
      7 C6           0.7490    -1.6910    -0.8430 c          1 SLR       0.936600
      8 OXT          0.7480    -1.6980    -2.0890 o          1 SLR      -0.814800
      9 O8          -0.6080     0.2350     2.0300 oh         1 SLR      -0.614800
     10 C11         -1.4210    -0.4780    -0.4580 c3         1 SLR       0.169100
     11 O12         -1.9640    -1.5040     0.3410 oh         1 SLR      -0.588800
     12 C13         -2.1630     0.8860    -0.3710 c3         1 SLR      -0.085700
     13 C14         -2.3610     1.4670    -1.7710 c3         1 SLR      -0.076100
     14 C15         -3.5180     0.7770     0.3230 c3         1 SLR      -0.076100
     15 H1           0.8440    -1.1800     1.6700 h1         1 SLR       0.087700
     16 H2           1.4820     1.5680     2.0250 hc         1 SLR       0.055700
     17 HN4          0.6450     0.8750    -1.8450 hn         1 SLR       0.331500
     18 HO8         -0.3720     0.1800     2.9610 ho         1 SLR       0.387000
     19 H11         -1.5510    -0.8340    -1.4860 h1         1 SLR       0.083700
     20 HO12        -1.8600    -1.2250     1.2590 ho         1 SLR       0.401000
     21 H13         -1.5600     1.5970     0.1970 hc         1 SLR       0.059700
     22 H14         -2.9870     0.8090    -2.3790 hc         1 SLR       0.022533
     23 H14A        -2.8500     2.4420    -1.7230 hc         1 SLR       0.022533
     24 H14B        -1.4200     1.6060    -2.3030 hc         1 SLR       0.022533
     25 H15         -4.1880     0.0880    -0.1970 hc         1 SLR       0.022533
     26 H15A        -3.4350     0.4480     1.3580 hc         1 SLR       0.022533
     27 H15B        -4.0030     1.7550     0.3360 hc         1 SLR       0.022533
     28 C9           3.0210     0.1730     1.4890 c3         1 SLR      -0.073100
     29 H9           3.2250    -0.6120     0.7610 hc         1 SLR       0.039367
     30 H9A          3.8130     0.9180     1.4190 hc         1 SLR       0.039367
     31 H9B          3.0670    -0.2760     2.4810 hc         1 SLR       0.039367
     32 O10          2.2630     2.3810    -0.4940 o          1 SLR      -0.690500
@<TRIPOS>BOND
     1     1     7 1   
     2     2     3 1   
     3     2     6 1   
     4     2     9 1   
     5     2    15 1   
     6     3     4 1   
     7     3    16 1   
     8     3    28 1   
     9     4     5 1   
    10     4    32 2   
    11     5     6 1   
    12     5    17 1   
    13     6     7 1   
    14     6    10 1   
    15     7     8 1   
    16     9    18 1   
    17    10    11 1   
    18    10    12 1   
    19    10    19 1   
    20    11    20 1   
    21    12    13 1   
    22    12    14 1   
    23    12    21 1   
    24    13    22 1   
    25    13    23 1   
    26    13    24 1   
    27    14    25 1   
    28    14    26 1   
    29    14    27 1   
    30    28    29 1   
    31    28    30 1   
    32    28    31 1   
@<TRIPOS>SUBSTRUCTURE
     1 SLR         1 TEMP              0 ****  ****    0 ROOT
