@<TRIPOS>MOLECULE
SLR
   32    32     1     0     0
SMALL
No Charge or Current Charge


@<TRIPOS>ATOM
      1 O7           1.2030    -2.5470    -0.1380 o          1 SLR      -0.709500
      2 C1           0.5550    -0.2480     1.4050 c5         1 SLR       0.154300
      3 C2           1.7860     0.6930     1.3170 c5         1 SLR      -0.183700
      4 C3           1.5600     1.5060     0.0480 c          1 SLR       0.564000
      5 N4           0.6970     0.8000    -0.7370 ns         1 SLR      -0.461900
      6 C5           0.0600    -0.3870    -0.1060 c5         1 SLR      -0.053600
      7 C6           0.7200    -1.6430    -0.8060 c          1 SLR       0.726000
      8 OXT          0.7850    -1.6660    -2.0300 o          1 SLR      -0.709500
      9 O8          -0.4320     0.3200     2.2720 oh         1 SLR      -0.677000
     10 C11         -1.4990    -0.5030    -0.3130 c3         1 SLR       0.192300
     11 O12         -2.0100    -1.3250     0.7420 oh         1 SLR      -0.651000
     12 C13         -2.3200     0.8400    -0.3940 c3         1 SLR      -0.085700
     13 C14         -2.2400     1.5060    -1.7960 c3         1 SLR      -0.076100
     14 C15         -3.8200     0.6790    -0.0180 c3         1 SLR      -0.076100
     15 H1           0.8500    -1.2210     1.8260 h1         1 SLR       0.087700
     16 H2           1.8730     1.3820     2.1650 hc         1 SLR       0.055700
     17 HN4          0.4430     1.1920    -1.6350 hn         1 SLR       0.331500
     18 HO8          0.0290     0.5720     3.1020 ho         1 SLR       0.426000
     19 H11         -1.6710    -1.0170    -1.2700 h1         1 SLR       0.083700
     20 HO12        -1.6590    -0.8850     1.5550 ho         1 SLR       0.440000
     21 H13         -1.8890     1.5440     0.3280 hc         1 SLR       0.059700
     22 H14         -2.6460     0.8380    -2.5650 hc         1 SLR       0.022533
     23 H14A        -2.8230     2.4350    -1.8150 hc         1 SLR       0.022533
     24 H14B        -1.2180     1.7680    -2.0820 hc         1 SLR       0.022533
     25 H15         -4.3030    -0.0740    -0.6530 hc         1 SLR       0.022533
     26 H15A        -3.9410     0.3810     1.0300 hc         1 SLR       0.022533
     27 H15B        -4.3570     1.6260    -0.1460 hc         1 SLR       0.022533
     28 C9           3.1500    -0.0390     1.2390 c3         1 SLR      -0.073100
     29 H9           3.2160    -0.6820     0.3550 hc         1 SLR       0.039367
     30 H9A          3.9770     0.6790     1.1860 hc         1 SLR       0.039367
     31 H9B          3.3120    -0.6650     2.1250 hc         1 SLR       0.039367
     32 O10          1.9460     2.6340    -0.2190 o          1 SLR      -0.615000
@<TRIPOS>BOND
     1     1     7 1   
     2     2     3 1   
     3     2     6 1   
     4     2     9 1   
     5     2    15 1   
     6     3     4 1   
     7     3    16 1   
     8     3    28 1   
     9     4     5 1   
    10     4    32 2   
    11     5     6 1   
    12     5    17 1   
    13     6     7 1   
    14     6    10 1   
    15     7     8 1   
    16     9    18 1   
    17    10    11 1   
    18    10    12 1   
    19    10    19 1   
    20    11    20 1   
    21    12    13 1   
    22    12    14 1   
    23    12    21 1   
    24    13    22 1   
    25    13    23 1   
    26    13    24 1   
    27    14    25 1   
    28    14    26 1   
    29    14    27 1   
    30    28    29 1   
    31    28    30 1   
    32    28    31 1   
@<TRIPOS>SUBSTRUCTURE
     1 SLR         1 TEMP              0 ****  ****    0 ROOT
