@<TRIPOS>MOLECULE
SLS
   24    25     1     0     0
SMALL
abcg2


@<TRIPOS>ATOM
      1 C4          49.7680   117.3840    31.6970 ca         1 SLS       0.168100
      2 C5          50.0500   118.5900    33.7210 c6         1 SLS       0.160600
      3 C6          51.4890   118.8410    33.3280 c6         1 SLS      -0.113400
      4 C7          52.0650   117.5730    32.7150 c6         1 SLS      -0.022100
      5 C8          51.1150   117.0070    31.6950 ca         1 SLS      -0.175300
      6 N           52.2880   114.0090    28.9000 nt         1 SLS      -0.604000
      7 O           50.4900   114.5250    27.6500 o          1 SLS      -0.608100
      8 C1          50.6920   115.6090    29.7470 ca         1 SLS      -0.191600
      9 C2          49.3590   116.0210    29.7560 ca         1 SLS      -0.022000
     10 C3          48.8980   116.8910    30.7230 ca         1 SLS      -0.158000
     11 C9          51.5490   116.1230    30.7160 ca         1 SLS      -0.045000
     12 O1          49.2460   118.2360    32.5970 os         1 SLS      -0.341100
     13 H1          49.5850   119.4780    34.1470 h1         1 SLS       0.056200
     14 H2          49.9950   117.7900    34.4680 h1         1 SLS       0.056200
     15 H3          52.0530   119.1370    34.2130 hc         1 SLS       0.059200
     16 H4          51.5410   119.6710    32.6190 hc         1 SLS       0.059200
     17 H5          52.2410   116.8340    33.5030 hc         1 SLS       0.052200
     18 H6          53.0340   117.7690    32.2520 hc         1 SLS       0.052200
     19 H7          52.6060   113.3370    28.2210 hn         1 SLS       0.310500
     20 H8          52.7290   113.9780    29.8030 hn         1 SLS       0.310500
     21 H9          48.6730   115.6500    29.0070 ha         1 SLS       0.139000
     22 H10         47.8600   117.1990    30.7320 ha         1 SLS       0.132000
     23 H11         52.6020   115.8650    30.7150 ha         1 SLS       0.106000
     24 C           51.1400   114.6720    28.6780 c          1 SLS       0.621700
@<TRIPOS>BOND
     1     1     5 ar  
     2     1    10 ar  
     3     1    12 1   
     4     2     3 1   
     5     2    12 1   
     6     2    13 1   
     7     2    14 1   
     8     3     4 1   
     9     3    15 1   
    10     3    16 1   
    11     4     5 1   
    12     4    17 1   
    13     4    18 1   
    14     5    11 ar  
    15     6    19 1   
    16     6    20 1   
    17     6    24 1   
    18     7    24 2   
    19     8     9 ar  
    20     8    11 ar  
    21     8    24 1   
    22     9    10 ar  
    23     9    21 1   
    24    10    22 1   
    25    11    23 1   
@<TRIPOS>SUBSTRUCTURE
     1 SLS         1 TEMP              0 ****  ****    0 ROOT
