@<TRIPOS>MOLECULE
SLS
   24    25     1     0     0
SMALL
No Charge or Current Charge


@<TRIPOS>ATOM
      1 C4          49.7360   117.4370    31.6540 ca         1 SLS       0.168100
      2 C5          50.0260   118.6600    33.7420 c6         1 SLS       0.160600
      3 C6          51.5170   118.8280    33.3950 c6         1 SLS      -0.113400
      4 C7          52.0480   117.5340    32.7450 c6         1 SLS      -0.022100
      5 C8          51.0770   116.9930    31.6930 ca         1 SLS      -0.175300
      6 N           52.3770   114.0860    28.7880 nt         1 SLS      -0.604000
      7 O           50.3570   114.0800    27.8770 o          1 SLS      -0.608100
      8 C1          50.6480   115.5390    29.7620 ca         1 SLS      -0.191600
      9 C2          49.3160   116.0080    29.7300 ca         1 SLS      -0.022000
     10 C3          48.8680   116.9520    30.6680 ca         1 SLS      -0.158000
     11 C9          51.5240   116.0440    30.7540 ca         1 SLS      -0.045000
     12 O1          49.2590   118.3680    32.5540 os         1 SLS      -0.341100
     13 H1          49.6320   119.5730    34.2080 h1         1 SLS       0.056200
     14 H2          49.9030   117.8310    34.4550 h1         1 SLS       0.056200
     15 H3          52.0960   119.0680    34.2980 hc         1 SLS       0.059200
     16 H4          51.6390   119.6740    32.7040 hc         1 SLS       0.059200
     17 H5          52.1980   116.7700    33.5200 hc         1 SLS       0.052200
     18 H6          53.0340   117.7220    32.2980 hc         1 SLS       0.052200
     19 H7          52.6900   113.4070    28.1110 hn         1 SLS       0.310500
     20 H8          53.0060   114.4370    29.4920 hn         1 SLS       0.310500
     21 H9          48.6210   115.6420    28.9760 ha         1 SLS       0.139000
     22 H10         47.8410   117.3050    30.6340 ha         1 SLS       0.132000
     23 H11         52.5570   115.7100    30.8060 ha         1 SLS       0.106000
     24 C           51.0990   114.5210    28.7390 c          1 SLS       0.621700
@<TRIPOS>BOND
     1     1     5 ar  
     2     1    10 ar  
     3     1    12 1   
     4     2     3 1   
     5     2    12 1   
     6     2    13 1   
     7     2    14 1   
     8     3     4 1   
     9     3    15 1   
    10     3    16 1   
    11     4     5 1   
    12     4    17 1   
    13     4    18 1   
    14     5    11 ar  
    15     6    19 1   
    16     6    20 1   
    17     6    24 1   
    18     7    24 2   
    19     8     9 ar  
    20     8    11 ar  
    21     8    24 1   
    22     9    10 ar  
    23     9    21 1   
    24    10    22 1   
    25    11    23 1   
@<TRIPOS>SUBSTRUCTURE
     1 SLS         1 TEMP              0 ****  ****    0 ROOT
