@<TRIPOS>MOLECULE
SLU
   58    63     1     0     0
SMALL
No Charge or Current Charge


@<TRIPOS>ATOM
      1 O39          2.0550    -4.2720    -2.4110 o          1 SLU      -0.528100
      2 C16          1.2810    -3.5200    -1.8330 c          1 SLU       0.580600
      3 C14          0.8450    -2.1770    -2.3510 cc         1 SLU       0.207500
      4 N15         -0.0620    -1.3640    -1.6970 nc         1 SLU      -0.590000
      5 C13          1.3510    -1.6660    -3.5240 cd         1 SLU      -0.196000
      6 S12          0.7000    -0.0680    -3.8500 ss         1 SLU       0.051600
      7 C11         -0.2390    -0.2230    -2.3650 cd         1 SLU       0.401100
      8 C8          -1.1190     0.8360    -1.9070 cd         1 SLU       0.321200
      9 S9          -1.2310     2.3590    -2.8330 ss         1 SLU       0.057800
     10 C4          -2.3390     2.8890    -1.5840 ca         1 SLU      -0.147000
     11 C5          -2.9710     4.1410    -1.5230 ca         1 SLU      -0.128000
     12 C6          -3.8370     4.4080    -0.4490 ca         1 SLU       0.158100
     13 O10         -4.4650     5.6140    -0.3710 oh         1 SLU      -0.527100
     14 C3          -2.5410     1.9160    -0.6210 ca         1 SLU       0.040400
     15 N7          -1.8540     0.7180    -0.7810 nc         1 SLU      -0.463100
     16 C2          -3.4070     2.1790     0.4550 ca         1 SLU      -0.004000
     17 C1          -4.0580     3.4290     0.5390 ca         1 SLU      -0.208000
     18 N40          0.7300    -3.8100    -0.6250 ns         1 SLU      -0.606300
     19 S17          1.0660    -5.0660     0.3970 s6         1 SLU       1.448500
     20 O18          0.2550    -4.8820     1.6040 o          1 SLU      -0.538000
     21 O19          1.0140    -6.3180    -0.3650 o          1 SLU      -0.538000
     22 O20          2.6420    -4.7260     0.7340 os         1 SLU      -0.560700
     23 C21          2.9430    -3.7510     1.7620 c3         1 SLU       0.208600
     24 C22          3.0310    -2.3330     1.1370 c5         1 SLU       0.146300
     25 C23          3.8480    -1.2940     1.9550 c5         1 SLU       0.091300
     26 O27          5.2700    -1.5120     1.9170 oh         1 SLU      -0.702000
     27 C24          3.4540    -0.0000     1.1840 c5         1 SLU       0.102300
     28 O28          4.2730     0.1040     0.0080 oh         1 SLU      -0.698000
     29 C25          1.9400    -0.2840     0.8600 c5         1 SLU       0.315300
     30 O26          1.7350    -1.7010     1.0940 os         1 SLU      -0.453000
     31 N35          0.9800     0.4750     1.6510 na         1 SLU      -0.305300
     32 C32          0.5510     1.7600     1.4510 ca         1 SLU       0.123500
     33 N31          0.8480     2.6460     0.4790 nb         1 SLU      -0.225000
     34 C30          0.2450     3.8550     0.5770 ca         1 SLU       0.179900
     35 N29         -0.6050     4.2590     1.5500 nb         1 SLU      -0.300000
     36 C33         -0.3040     2.0660     2.4790 ca         1 SLU      -0.100600
     37 C34         -0.8770     3.3550     2.5040 ca         1 SLU       0.448900
     38 N38         -1.7220     3.7600     3.4890 nv         1 SLU      -1.059900
     39 N37         -0.4720     1.0070     3.3640 nc         1 SLU      -0.529100
     40 C36          0.3170     0.0620     2.8200 cd         1 SLU       0.405700
     41 H13          2.0680    -2.1200    -4.1960 h4         1 SLU       0.186000
     42 H5          -2.7960     4.8910    -2.2900 ha         1 SLU       0.144000
     43 H10         -5.0370     5.6140     0.4260 ho         1 SLU       0.472000
     44 H2          -3.5690     1.4230     1.2190 ha         1 SLU       0.140000
     45 H1          -4.7270     3.6260     1.3730 ha         1 SLU       0.122000
     46 H40          0.1870    -3.1010    -0.1630 hn         1 SLU       0.373500
     47 H211         3.9290    -3.9810     2.1850 h1         1 SLU       0.067700
     48 H212         2.2290    -3.7630     2.5970 h1         1 SLU       0.067700
     49 H22          3.4290    -2.4270     0.1160 h1         1 SLU       0.109700
     50 H23          3.4850    -1.2570     2.9930 h1         1 SLU       0.049700
     51 H27          5.6340    -1.2770     2.8060 ho         1 SLU       0.521000
     52 H24          3.5690     0.8930     1.8150 h1         1 SLU       0.072700
     53 H28          5.0920    -0.3970     0.2560 ho         1 SLU       0.528000
     54 H25          1.7370    -0.0380    -0.1890 h2         1 SLU       0.133700
     55 H30          0.4710     4.5780    -0.2050 h5         1 SLU       0.049100
     56 H381        -2.3130     4.5660     3.3070 hn         1 SLU       0.510000
     57 H382        -2.1040     3.0400     4.0960 hn         1 SLU       0.510000
     58 H36          0.4690    -0.9320     3.2250 h5         1 SLU       0.061800
@<TRIPOS>BOND
     1     1     2 2   
     2     2     3 1   
     3     2    18 1   
     4     3     4 1   
     5     3     5 2   
     6     4     7 2   
     7     5     6 1   
     8     5    41 1   
     9     6     7 1   
    10     7     8 1   
    11     8     9 1   
    12     8    15 2   
    13     9    10 1   
    14    10    11 ar  
    15    10    14 ar  
    16    11    12 ar  
    17    11    42 1   
    18    12    13 1   
    19    12    17 ar  
    20    13    43 1   
    21    14    15 1   
    22    14    16 ar  
    23    16    17 ar  
    24    16    44 1   
    25    17    45 1   
    26    18    19 1   
    27    18    46 1   
    28    19    20 2   
    29    19    21 2   
    30    19    22 1   
    31    22    23 1   
    32    23    24 1   
    33    23    47 1   
    34    23    48 1   
    35    24    25 1   
    36    24    30 1   
    37    24    49 1   
    38    25    26 1   
    39    25    27 1   
    40    25    50 1   
    41    26    51 1   
    42    27    28 1   
    43    27    29 1   
    44    27    52 1   
    45    28    53 1   
    46    29    30 1   
    47    29    31 1   
    48    29    54 1   
    49    31    32 1   
    50    31    40 1   
    51    32    33 ar  
    52    32    36 ar  
    53    33    34 ar  
    54    34    35 ar  
    55    34    55 1   
    56    35    37 ar  
    57    36    37 ar  
    58    36    39 1   
    59    37    38 1   
    60    38    56 1   
    61    38    57 1   
    62    39    40 2   
    63    40    58 1   
@<TRIPOS>SUBSTRUCTURE
     1 SLU         1 TEMP              0 ****  ****    0 ROOT
