@<TRIPOS>MOLECULE
SLU
   58    63     1     0     0
SMALL
bcc


@<TRIPOS>ATOM
      1 O39          1.9820    -3.1410    -2.1910 o          1 SLU      -0.528100
      2 C16          1.1030    -2.5970    -1.5700 c          1 SLU       0.647600
      3 C14          0.6440    -1.2200    -1.8440 cc         1 SLU       0.272800
      4 N15         -0.4380    -0.7110    -1.2020 nc         1 SLU      -0.590000
      5 C13          1.2390    -0.3950    -2.7530 cd         1 SLU      -0.134400
      6 S12          0.4050     1.0820    -2.8090 ss         1 SLU      -0.093300
      7 C11         -0.6970     0.4910    -1.6090 cd         1 SLU       0.401100
      8 C8          -1.8210     1.2860    -1.1470 cd         1 SLU       0.321200
      9 S9          -2.2110     2.8090    -1.9190 ss         1 SLU      -0.069100
     10 C4          -3.5340     2.9790    -0.8240 ca         1 SLU      -0.020100
     11 C5          -4.4440     4.0200    -0.7330 ca         1 SLU      -0.146000
     12 C6          -5.4280     3.9290     0.2440 ca         1 SLU       0.158100
     13 O10         -6.3110     4.9360     0.3260 oh         1 SLU      -0.488100
     14 C3          -3.5740     1.8610     0.0280 ca         1 SLU       0.040400
     15 N7          -2.5960     0.9290    -0.1850 nc         1 SLU      -0.463100
     16 C2          -4.5720     1.7940     1.0030 ca         1 SLU      -0.022000
     17 C1          -5.4850     2.8190     1.1060 ca         1 SLU      -0.226000
     18 N40          0.4100    -3.2000    -0.5440 ns         1 SLU      -0.673300
     19 S17          0.7780    -4.7020     0.0550 s6         1 SLU       1.590100
     20 O18         -0.1110    -4.8780     1.1750 o          1 SLU      -0.608800
     21 O19          0.8440    -5.6690    -1.0040 o          1 SLU      -0.608800
     22 O20          2.2760    -4.5570     0.5490 os         1 SLU      -0.537500
     23 C21          2.5940    -3.7360     1.6940 c3         1 SLU       0.185400
     24 C22          3.5360    -2.6340     1.2860 c5         1 SLU       0.123100
     25 C23          3.9790    -1.7760     2.4700 c5         1 SLU       0.068100
     26 O27          5.0730    -2.3620     3.1110 oh         1 SLU      -0.579800
     27 C24          4.3010    -0.4440     1.7780 c5         1 SLU       0.079100
     28 O28          5.5630    -0.4900     1.1740 oh         1 SLU      -0.575800
     29 C25          3.2590    -0.4060     0.6560 c5         1 SLU       0.262800
     30 O26          2.8760    -1.7330     0.4130 os         1 SLU      -0.406600
     31 N35          2.0790     0.3650     0.9810 na         1 SLU      -0.276000
     32 C32          1.8000     1.6170     0.5120 ca         1 SLU       0.451800
     33 N31          2.5110     2.3530    -0.3370 nb         1 SLU      -0.751000
     34 C30          1.9240     3.5110    -0.5870 ca         1 SLU       0.705900
     35 N29          0.7800     3.9810    -0.0950 nb         1 SLU      -0.826000
     36 C33          0.6010     1.9700     1.1100 ca         1 SLU      -0.231200
     37 C34          0.0850     3.2330     0.7690 ca         1 SLU       0.777200
     38 N38         -1.0540     3.7050     1.2750 nv         1 SLU      -0.949500
     39 N37          0.1470     0.9660     1.9230 nc         1 SLU      -0.529100
     40 C36          1.0460     0.0340     1.8180 cd         1 SLU       0.405700
     41 H13          2.1030    -0.5820    -3.3720 h4         1 SLU       0.204000
     42 H5          -4.4020     4.8760    -1.3940 ha         1 SLU       0.162000
     43 H10         -6.9510     4.7760     1.0280 ho         1 SLU       0.433000
     44 H2          -4.6190     0.9440     1.6710 ha         1 SLU       0.158000
     45 H1          -6.2590     2.7690     1.8620 ha         1 SLU       0.140000
     46 H40         -0.3270    -2.6830    -0.0740 hn         1 SLU       0.373500
     47 H211         3.0810    -4.3880     2.4180 h1         1 SLU       0.067700
     48 H212         1.6910    -3.3350     2.1600 h1         1 SLU       0.067700
     49 H22          4.4160    -3.0640     0.7930 h1         1 SLU       0.109700
     50 H23          3.1420    -1.6290     3.1650 h1         1 SLU       0.049700
     51 H27          5.1300    -2.0230     4.0100 ho         1 SLU       0.422000
     52 H24          4.1990     0.4130     2.4540 h1         1 SLU       0.072700
     53 H28          6.1690    -0.9280     1.7850 ho         1 SLU       0.429000
     54 H25          3.6820     0.0500    -0.2420 h2         1 SLU       0.133700
     55 H30          2.4380     4.1680    -1.2800 h5         1 SLU       0.049100
     56 H381        -1.4140     4.5950     0.9760 hn         1 SLU       0.454800
     57 H382        -1.6140     3.1480     1.8960 hn         1 SLU       0.454800
     58 H36          1.0000    -0.9160     2.3290 h5         1 SLU       0.061800
@<TRIPOS>BOND
     1     1     2 2   
     2     2     3 1   
     3     2    18 1   
     4     3     4 1   
     5     3     5 2   
     6     4     7 2   
     7     5     6 1   
     8     5    41 1   
     9     6     7 1   
    10     7     8 1   
    11     8     9 1   
    12     8    15 2   
    13     9    10 1   
    14    10    11 ar  
    15    10    14 ar  
    16    11    12 ar  
    17    11    42 1   
    18    12    13 1   
    19    12    17 ar  
    20    13    43 1   
    21    14    15 1   
    22    14    16 ar  
    23    16    17 ar  
    24    16    44 1   
    25    17    45 1   
    26    18    19 1   
    27    18    46 1   
    28    19    20 2   
    29    19    21 2   
    30    19    22 1   
    31    22    23 1   
    32    23    24 1   
    33    23    47 1   
    34    23    48 1   
    35    24    25 1   
    36    24    30 1   
    37    24    49 1   
    38    25    26 1   
    39    25    27 1   
    40    25    50 1   
    41    26    51 1   
    42    27    28 1   
    43    27    29 1   
    44    27    52 1   
    45    28    53 1   
    46    29    30 1   
    47    29    31 1   
    48    29    54 1   
    49    31    32 1   
    50    31    40 1   
    51    32    33 ar  
    52    32    36 ar  
    53    33    34 ar  
    54    34    35 ar  
    55    34    55 1   
    56    35    37 ar  
    57    36    37 ar  
    58    36    39 1   
    59    37    38 1   
    60    38    56 1   
    61    38    57 1   
    62    39    40 2   
    63    40    58 1   
@<TRIPOS>SUBSTRUCTURE
     1 SLU         1 TEMP              0 ****  ****    0 ROOT
