@<TRIPOS>MOLECULE
SLV
   29    29     1     0     0
SMALL
No Charge or Current Charge


@<TRIPOS>ATOM
      1 C4          41.7750    94.5880     9.0700 ca         1 SLV      -0.040000
      2 C5          42.9690    94.8470     8.3790 ca         1 SLV      -0.208000
      3 C6          43.1720    96.0730     7.7230 ca         1 SLV       0.016000
      4 C8          46.3240    97.0690     5.7590 c3         1 SLV      -0.182100
      5 C10         40.9530    96.7880     8.4590 ca         1 SLV       0.172100
      6 N           44.4080    96.2590     7.0450 ns         1 SLV      -0.147000
      7 C           37.0470    94.3720     9.6980 c3         1 SLV      -0.091100
      8 O           44.3470    98.3840     6.1250 o          1 SLV      -0.576100
      9 C1          38.3540    94.7040     8.9520 c3         1 SLV      -0.080400
     10 C3          40.7540    95.5570     9.1200 ca         1 SLV      -0.199300
     11 C9          42.1490    97.0430     7.7700 ca         1 SLV      -0.172000
     12 O1          39.9900    97.7510     8.4730 oh         1 SLV      -0.535100
     13 H1          41.6430    93.6290     9.5680 ha         1 SLV       0.110000
     14 H2          43.7440    94.0840     8.3550 ha         1 SLV       0.110000
     15 H3          46.7130    97.9210     5.1910 hc         1 SLV       0.063367
     16 H4          46.9930    96.7910     6.5820 hc         1 SLV       0.063367
     17 H5          46.3050    96.1540     5.1560 hc         1 SLV       0.063367
     18 H6          45.0270    95.4610     7.1050 hn         1 SLV       0.149000
     19 H7          36.2920    93.9950     8.9980 hc         1 SLV       0.032700
     20 H8          37.2210    93.6040    10.4610 hc         1 SLV       0.032700
     21 H9          36.6430    95.2650    10.1910 hc         1 SLV       0.032700
     22 H10         38.7130    93.8010     8.4430 hc         1 SLV       0.044200
     23 H11         38.1400    95.4440     8.1710 hc         1 SLV       0.044200
     24 H12         39.1030    96.1190    10.4230 hc         1 SLV       0.042700
     25 H13         39.6670    94.4840    10.6540 hc         1 SLV       0.042700
     26 H14         42.2570    98.0020     7.2770 ha         1 SLV       0.163000
     27 H15         39.2250    97.4000     8.9720 ho         1 SLV       0.467000
     28 C2          39.4660    95.2370     9.8820 c3         1 SLV      -0.026100
     29 C7          44.9270    97.3230     6.3200 c          1 SLV       0.607100
@<TRIPOS>BOND
     1     1     2 ar  
     2     1    10 ar  
     3     1    13 1   
     4     2     3 ar  
     5     2    14 1   
     6     3     6 1   
     7     3    11 ar  
     8     4    15 1   
     9     4    16 1   
    10     4    17 1   
    11     4    29 1   
    12     5    10 ar  
    13     5    11 ar  
    14     5    12 1   
    15     6    18 1   
    16     6    29 1   
    17     7     9 1   
    18     7    19 1   
    19     7    20 1   
    20     7    21 1   
    21     8    29 2   
    22     9    22 1   
    23     9    23 1   
    24     9    28 1   
    25    10    28 1   
    26    11    26 1   
    27    12    27 1   
    28    24    28 1   
    29    25    28 1   
@<TRIPOS>SUBSTRUCTURE
     1 SLV         1 TEMP              0 ****  ****    0 ROOT
