@<TRIPOS>MOLECULE
SLV
   29    29     1     0     0
SMALL
abcg2


@<TRIPOS>ATOM
      1 C4          41.8400    94.6450     9.1940 ca         1 SLV      -0.040000
      2 C5          43.0220    94.8780     8.5170 ca         1 SLV      -0.208000
      3 C6          43.1830    96.0550     7.7830 ca         1 SLV       0.016000
      4 C8          46.1970    97.0320     5.7350 c3         1 SLV      -0.182100
      5 C10         40.9660    96.7260     8.4500 ca         1 SLV       0.172100
      6 N           44.4010    96.2220     7.1170 ns         1 SLV      -0.147000
      7 C           37.0940    94.4170     9.6200 c3         1 SLV      -0.091100
      8 O           44.1630    98.2330     6.0780 o          1 SLV      -0.576100
      9 C1          38.4100    94.7100     8.9150 c3         1 SLV      -0.080400
     10 C3          40.7820    95.5480     9.1810 ca         1 SLV      -0.199300
     11 C9          42.1460    96.9840     7.7570 ca         1 SLV      -0.172000
     12 O1          40.0150    97.6830     8.3670 oh         1 SLV      -0.535100
     13 H1          41.7340    93.7240     9.7560 ha         1 SLV       0.110000
     14 H2          43.8200    94.1460     8.5560 ha         1 SLV       0.110000
     15 H3          46.7860    97.9400     5.8560 hc         1 SLV       0.063367
     16 H4          46.7440    96.2010     6.1760 hc         1 SLV       0.063367
     17 H5          46.1020    96.8460     4.6650 hc         1 SLV       0.063367
     18 H6          45.0500    95.4600     7.2380 hn         1 SLV       0.149000
     19 H7          36.3530    94.0220     8.9250 hc         1 SLV       0.032700
     20 H8          37.2300    93.6810    10.4140 hc         1 SLV       0.032700
     21 H9          36.6770    95.3180    10.0730 hc         1 SLV       0.032700
     22 H10         38.7820    93.8030     8.4320 hc         1 SLV       0.044200
     23 H11         38.2450    95.4330     8.1100 hc         1 SLV       0.044200
     24 H12         39.0990    96.1050    10.4160 hc         1 SLV       0.042700
     25 H13         39.6660    94.4820    10.6450 hc         1 SLV       0.042700
     26 H14         42.2340    97.9070     7.2080 ha         1 SLV       0.163000
     27 H15         39.2700    97.4780     8.9410 ho         1 SLV       0.467000
     28 C2          39.4840    95.2330     9.8730 c3         1 SLV      -0.026100
     29 C7          44.8250    97.2380     6.3230 c          1 SLV       0.607100
@<TRIPOS>BOND
     1     1     2 ar  
     2     1    10 ar  
     3     1    13 1   
     4     2     3 ar  
     5     2    14 1   
     6     3     6 1   
     7     3    11 ar  
     8     4    15 1   
     9     4    16 1   
    10     4    17 1   
    11     4    29 1   
    12     5    10 ar  
    13     5    11 ar  
    14     5    12 1   
    15     6    18 1   
    16     6    29 1   
    17     7     9 1   
    18     7    19 1   
    19     7    20 1   
    20     7    21 1   
    21     8    29 2   
    22     9    22 1   
    23     9    23 1   
    24     9    28 1   
    25    10    28 1   
    26    11    26 1   
    27    12    27 1   
    28    24    28 1   
    29    25    28 1   
@<TRIPOS>SUBSTRUCTURE
     1 SLV         1 TEMP              0 ****  ****    0 ROOT
