@<TRIPOS>MOLECULE
SLW
   55    59     1     0     0
SMALL
bcc


@<TRIPOS>ATOM
      1 C2          55.8330    48.8780    18.6880 ca         1 SLW       0.045400
      2 C3          56.3750    49.0070    17.4190 ca         1 SLW      -0.130500
      3 C4          57.4420    49.8720    17.2270 ca         1 SLW      -0.083500
      4 C5          57.9700    50.6010    18.2890 ca         1 SLW      -0.153600
      5 C6          57.4180    50.4410    19.5570 ca         1 SLW      -0.083500
      6 C7          56.3440    49.5910    19.7620 ca         1 SLW      -0.130500
      7 C8          59.1530    51.5070    18.1360 c          1 SLW       0.682700
      8 O9          59.9250    51.6870    19.0670 o          1 SLW      -0.595100
      9 N10         59.2850    52.0840    16.9290 ns         1 SLW      -0.570900
     10 C11         60.4010    52.9170    16.5300 c3         1 SLW       0.138700
     11 C15         61.4140    52.1650    15.6830 cx         1 SLW      -0.125700
     12 C17         60.9710    51.1530    14.6680 cx         1 SLW      -0.118200
     13 C19         61.8640    50.8980    13.4770 c5         1 SLW      -0.067400
     14 C23         61.7020    50.7120    15.9050 cx         1 SLW      -0.118200
     15 O25         64.0350    49.9000    13.2280 os         1 SLW      -0.315900
     16 C27         66.1180    50.5790    14.2270 ca         1 SLW      -0.369300
     17 C30         67.4440    48.9360    12.4850 ca         1 SLW       0.422600
     18 C31         68.1310    48.0880    11.5880 ca         1 SLW      -0.179300
     19 C32         67.4450    47.3390    10.6700 ca         1 SLW      -0.109000
     20 C33         66.0400    47.4030    10.6050 ca         1 SLW      -0.143000
     21 C34         65.3450    48.2160    11.4600 ca         1 SLW      -0.086000
     22 C35         66.0300    48.9960    12.4160 ca         1 SLW      -0.172300
     23 CL1         54.5020    47.8020    18.9370 cl         1 SLW      -0.101400
     24 C13         59.8950    54.1560    15.7920 c3         1 SLW      -0.088400
     25 C14         59.0100    55.0530    16.6430 c3         1 SLW      -0.089100
     26 C20         63.2690    50.7550    14.0720 c5         1 SLW       0.140100
     27 C22         63.0640    50.2000    15.4910 c5         1 SLW      -0.067400
     28 C26         65.3600    49.8610    13.3320 ca         1 SLW       0.203100
     29 C28         67.5160    50.4320    14.1930 ca         1 SLW       0.453200
     30 N29         68.1720    49.6570    13.3740 nb         1 SLW      -0.686000
     31 H1          55.9800    48.4370    16.5900 ha         1 SLW       0.151500
     32 H2          57.8700    49.9400    16.2350 ha         1 SLW       0.145500
     33 H3          57.8220    50.9890    20.3970 ha         1 SLW       0.145500
     34 H4          55.9140    49.4830    20.7490 ha         1 SLW       0.151500
     35 H5          58.5400    51.9710    16.2590 hn         1 SLW       0.313500
     36 H6          60.9030    53.2420    17.4450 h1         1 SLW       0.088700
     37 H7          62.2550    52.8030    15.4230 hc         1 SLW       0.083700
     38 H8          59.9110    50.9600    14.5520 hc         1 SLW       0.093700
     39 H9          61.8220    51.6800    12.7160 hc         1 SLW       0.065200
     40 H10         61.5710    49.9570    13.0030 hc         1 SLW       0.065200
     41 H11         61.1850    50.1870    16.6990 hc         1 SLW       0.093700
     42 H13         69.2110    48.0480    11.6480 ha         1 SLW       0.149000
     43 H14         67.9840    46.6930     9.9880 ha         1 SLW       0.133000
     44 H15         65.5090    46.8080     9.8740 ha         1 SLW       0.132000
     45 H16         64.2660    48.2580    11.4020 ha         1 SLW       0.142000
     46 H17         59.3610    53.8430    14.8890 hc         1 SLW       0.045700
     47 H18         60.7660    54.7200    15.4490 hc         1 SLW       0.045700
     48 H19         58.7200    55.9470    16.0920 hc         1 SLW       0.037700
     49 H20         58.0950    54.5470    16.9510 hc         1 SLW       0.037700
     50 H21         59.5310    55.3750    17.5470 hc         1 SLW       0.037700
     51 H22         63.7550    51.7340    14.1070 h1         1 SLW       0.051700
     52 H23         63.0480    49.1070    15.4540 hc         1 SLW       0.065200
     53 H24         63.8600    50.4950    16.1770 hc         1 SLW       0.065200
     54 H25         68.1070    51.0030    14.9020 h4         1 SLW       0.015100
     55 H12         65.6860    51.2470    14.9570 ha         1 SLW       0.144000
@<TRIPOS>BOND
     1     1     2 ar  
     2     1     6 ar  
     3     1    23 1   
     4     2     3 ar  
     5     2    31 1   
     6     3     4 ar  
     7     3    32 1   
     8     4     5 ar  
     9     4     7 1   
    10     5     6 ar  
    11     5    33 1   
    12     6    34 1   
    13     7     8 2   
    14     7     9 1   
    15     9    10 1   
    16     9    35 1   
    17    10    11 1   
    18    10    24 1   
    19    10    36 1   
    20    11    12 1   
    21    11    14 1   
    22    11    37 1   
    23    12    13 1   
    24    12    14 1   
    25    12    38 1   
    26    13    26 1   
    27    13    39 1   
    28    13    40 1   
    29    14    27 1   
    30    14    41 1   
    31    15    26 1   
    32    15    28 1   
    33    16    28 ar  
    34    16    29 ar  
    35    16    55 1   
    36    17    18 ar  
    37    17    22 ar  
    38    17    30 ar  
    39    18    19 ar  
    40    18    42 1   
    41    19    20 ar  
    42    19    43 1   
    43    20    21 ar  
    44    20    44 1   
    45    21    22 ar  
    46    21    45 1   
    47    22    28 ar  
    48    24    25 1   
    49    24    46 1   
    50    24    47 1   
    51    25    48 1   
    52    25    49 1   
    53    25    50 1   
    54    26    27 1   
    55    26    51 1   
    56    27    52 1   
    57    27    53 1   
    58    29    30 ar  
    59    29    54 1   
@<TRIPOS>SUBSTRUCTURE
     1 SLW         1 TEMP              0 ****  ****    0 ROOT
