@<TRIPOS>MOLECULE
SLW
   55    59     1     0     0
SMALL
No Charge or Current Charge


@<TRIPOS>ATOM
      1 C2          55.8850    48.5000    18.3420 ca         1 SLW       0.137000
      2 C3          56.3550    48.9300    17.0930 ca         1 SLW      -0.112500
      3 C4          57.4140    49.8530    17.0150 ca         1 SLW      -0.065500
      4 C5          58.0160    50.3590    18.1950 ca         1 SLW      -0.153600
      5 C6          57.5280    49.9120    19.4460 ca         1 SLW      -0.065500
      6 C7          56.4700    48.9890    19.5170 ca         1 SLW      -0.112500
      7 C8          59.1600    51.3540    18.1580 c          1 SLW       0.615700
      8 O9          59.6910    51.7700    19.1780 o          1 SLW      -0.595100
      9 N10         59.5750    51.7640    16.9090 ns         1 SLW      -0.503900
     10 C11         60.6560    52.7210    16.6470 c3         1 SLW       0.138700
     11 C15         61.5840    52.2290    15.5280 cx         1 SLW      -0.125700
     12 C17         61.0460    51.5670    14.2680 cx         1 SLW      -0.118200
     13 C19         61.9000    51.7230    12.9940 c5         1 SLW      -0.067400
     14 C23         61.8260    50.7500    15.2610 cx         1 SLW      -0.118200
     15 O25         64.0370    50.7710    12.3370 os         1 SLW      -0.339100
     16 C27         66.2410    51.4810    13.0670 ca         1 SLW      -0.286000
     17 C30         67.1740    48.8880    12.8980 ca         1 SLW       0.292000
     18 C31         67.6470    47.5650    12.8040 ca         1 SLW      -0.096000
     19 C32         66.8030    46.5210    12.3890 ca         1 SLW      -0.091000
     20 C33         65.4670    46.7910    12.0590 ca         1 SLW      -0.125000
     21 C34         64.9750    48.1030    12.1460 ca         1 SLW      -0.068000
     22 C35         65.8220    49.1530    12.5660 ca         1 SLW      -0.107000
     23 Cl1         54.5610    47.3450    18.4320 cl         1 SLW      -0.193000
     24 C13         60.0900    54.1280    16.3290 c3         1 SLW      -0.088400
     25 C14         59.2390    54.7480    17.4580 c3         1 SLW      -0.089100
     26 C20         63.3600    51.4130    13.4520 c5         1 SLW       0.163300
     27 C22         63.1780    50.3820    14.6200 c5         1 SLW      -0.067400
     28 C26         65.3460    50.4750    12.6730 ca         1 SLW       0.203100
     29 C28         67.5590    51.1330    13.3750 ca         1 SLW       0.387900
     30 N29         68.0190    49.8660    13.2980 nb         1 SLW      -0.686000
     31 H1          55.8990    48.5480    16.1830 ha         1 SLW       0.133500
     32 H2          57.7510    50.1610    16.0280 ha         1 SLW       0.127500
     33 H3          57.9690    50.2790    20.3710 ha         1 SLW       0.127500
     34 H4          56.1040    48.6540    20.4850 ha         1 SLW       0.133500
     35 H5          59.0870    51.3760    16.1160 hn         1 SLW       0.313500
     36 H6          61.2710    52.8080    17.5530 h1         1 SLW       0.088700
     37 H7          62.4320    52.9030    15.4240 hc         1 SLW       0.083700
     38 H8          59.9730    51.4080    14.1790 hc         1 SLW       0.093700
     39 H9          61.8190    52.7270    12.5630 hc         1 SLW       0.065200
     40 H10         61.5680    51.0180    12.2230 hc         1 SLW       0.065200
     41 H11         61.3020    50.0150    15.8670 hc         1 SLW       0.093700
     42 H13         68.6810    47.3490    13.0570 ha         1 SLW       0.131000
     43 H14         67.1860    45.5050    12.3220 ha         1 SLW       0.115000
     44 H15         64.8120    45.9850    11.7360 ha         1 SLW       0.114000
     45 H16         63.9360    48.2960    11.8880 ha         1 SLW       0.124000
     46 H17         59.4870    54.0780    15.4140 hc         1 SLW       0.045700
     47 H18         60.9260    54.8050    16.1170 hc         1 SLW       0.045700
     48 H19         58.9350    55.7670    17.1890 hc         1 SLW       0.037700
     49 H20         58.3300    54.1610    17.6360 hc         1 SLW       0.037700
     50 H21         59.8110    54.7980    18.3920 hc         1 SLW       0.037700
     51 H22         63.8750    52.3280    13.7710 h1         1 SLW       0.051700
     52 H23         63.1500    49.3530    14.2420 hc         1 SLW       0.065200
     53 H24         64.0030    50.4360    15.3380 hc         1 SLW       0.065200
     54 H25         68.2770    51.8920    13.6850 h4         1 SLW       0.015100
     55 H12         65.9400    52.5220    13.1210 ha         1 SLW       0.126000
@<TRIPOS>BOND
     1     1     2 ar  
     2     1     6 ar  
     3     1    23 1   
     4     2     3 ar  
     5     2    31 1   
     6     3     4 ar  
     7     3    32 1   
     8     4     5 ar  
     9     4     7 1   
    10     5     6 ar  
    11     5    33 1   
    12     6    34 1   
    13     7     8 2   
    14     7     9 1   
    15     9    10 1   
    16     9    35 1   
    17    10    11 1   
    18    10    24 1   
    19    10    36 1   
    20    11    12 1   
    21    11    14 1   
    22    11    37 1   
    23    12    13 1   
    24    12    14 1   
    25    12    38 1   
    26    13    26 1   
    27    13    39 1   
    28    13    40 1   
    29    14    27 1   
    30    14    41 1   
    31    15    26 1   
    32    15    28 1   
    33    16    28 ar  
    34    16    29 ar  
    35    16    55 1   
    36    17    18 ar  
    37    17    22 ar  
    38    17    30 ar  
    39    18    19 ar  
    40    18    42 1   
    41    19    20 ar  
    42    19    43 1   
    43    20    21 ar  
    44    20    44 1   
    45    21    22 ar  
    46    21    45 1   
    47    22    28 ar  
    48    24    25 1   
    49    24    46 1   
    50    24    47 1   
    51    25    48 1   
    52    25    49 1   
    53    25    50 1   
    54    26    27 1   
    55    26    51 1   
    56    27    52 1   
    57    27    53 1   
    58    29    30 ar  
    59    29    54 1   
@<TRIPOS>SUBSTRUCTURE
     1 SLW         1 TEMP              0 ****  ****    0 ROOT
