@<TRIPOS>MOLECULE
SLX
   45    48     1     0     0
SMALL
bcc


@<TRIPOS>ATOM
      1 C1           1.7900    -0.0210     0.2230 ca         1 SLX      -0.071300
      2 C2           2.4120    -1.2370     0.5210 ca         1 SLX      -0.140000
      3 C3           3.7720    -1.4070     0.3690 ca         1 SLX       0.119100
      4 C5           4.5530    -0.3320    -0.0910 ca         1 SLX       0.052100
      5 C8           3.9450     0.8770    -0.3650 ca         1 SLX      -0.171000
      6 C9           2.5660     1.0460    -0.2080 ca         1 SLX      -0.066300
      7 C10          1.9350     2.3840    -0.4670 c6         1 SLX      -0.025100
      8 C11          0.6230     2.5000     0.2800 c6         1 SLX       0.173800
      9 N12         -0.2240     1.3740    -0.0560 n3         1 SLX      -0.718600
     10 C14          0.2930     0.0950     0.4030 c6         1 SLX       0.236800
     11 C16         -0.4460    -0.9860    -0.3820 c6         1 SLX      -0.021100
     12 C17         -1.9370    -0.8160    -0.2890 ca         1 SLX      -0.057300
     13 C25         -2.7900    -1.8720    -0.5640 ca         1 SLX      -0.129000
     14 C24         -4.1700    -1.7250    -0.4760 ca         1 SLX      -0.179000
     15 C21         -4.7150    -0.5080    -0.0960 ca         1 SLX       0.106100
     16 O22         -6.0340    -0.2510     0.0300 os         1 SLX      -0.297900
     17 C23         -6.9380    -1.3030    -0.2350 c3         1 SLX       0.122700
     18 C19         -3.8580     0.5640     0.1960 ca         1 SLX       0.114100
     19 O20         -4.4570     1.7160     0.5750 oh         1 SLX      -0.482100
     20 C18         -2.4780     0.4170     0.0850 ca         1 SLX      -0.141300
     21 C13         -1.5780     1.5820     0.4010 c6         1 SLX       0.220100
     22 O6           5.8730    -0.5970    -0.2070 os         1 SLX      -0.343900
     23 C7           6.7340     0.4360    -0.6420 c3         1 SLX       0.133700
     24 O4           4.3280    -2.6020     0.6680 oh         1 SLX      -0.497100
     25 H2           1.8300    -2.0750     0.8870 ha         1 SLX       0.148000
     26 H8           4.5310     1.7250    -0.6990 ha         1 SLX       0.134000
     27 H10          2.6100     3.1840    -0.1590 hc         1 SLX       0.055700
     28 H10A         1.7520     2.5220    -1.5370 hc         1 SLX       0.055700
     29 H11          0.8060     2.5730     1.3650 h1         1 SLX       0.034200
     30 H11A         0.1100     3.4170    -0.0170 h1         1 SLX       0.034200
     31 H14          0.0750    -0.0460     1.4790 h1         1 SLX       0.038700
     32 H16         -0.1230    -0.9300    -1.4270 hc         1 SLX       0.061200
     33 H16A        -0.1710    -1.9790    -0.0220 hc         1 SLX       0.061200
     34 H25         -2.3810    -2.8330    -0.8520 ha         1 SLX       0.132000
     35 H24         -4.8040    -2.5720    -0.6970 ha         1 SLX       0.137000
     36 H23         -6.8640    -1.6590    -1.2660 h1         1 SLX       0.038367
     37 H23A        -6.7880    -2.1510     0.4390 h1         1 SLX       0.038367
     38 H23B        -7.9360    -0.9010    -0.0750 h1         1 SLX       0.038367
     39 HO20        -3.8090     2.4010     0.7680 ho         1 SLX       0.419000
     40 H13         -1.6120     1.7830     1.4890 h1         1 SLX       0.033700
     41 H13A        -1.9470     2.4900    -0.0890 h1         1 SLX       0.033700
     42 H7           6.4740     0.7850    -1.6450 h1         1 SLX       0.041367
     43 H7A          6.7210     1.2890     0.0420 h1         1 SLX       0.041367
     44 H7B          7.7360     0.0170    -0.6640 h1         1 SLX       0.041367
     45 HO4          5.2830    -2.5630     0.5390 ho         1 SLX       0.441000
@<TRIPOS>BOND
     1     1     2 ar  
     2     1     6 ar  
     3     1    10 1   
     4     2     3 ar  
     5     2    25 1   
     6     3     4 ar  
     7     3    24 1   
     8     4     5 ar  
     9     4    22 1   
    10     5     6 ar  
    11     5    26 1   
    12     6     7 1   
    13     7     8 1   
    14     7    27 1   
    15     7    28 1   
    16     8     9 1   
    17     8    29 1   
    18     8    30 1   
    19     9    10 1   
    20     9    21 1   
    21    10    11 1   
    22    10    31 1   
    23    11    12 1   
    24    11    32 1   
    25    11    33 1   
    26    12    13 ar  
    27    12    20 ar  
    28    13    14 ar  
    29    13    34 1   
    30    14    15 ar  
    31    14    35 1   
    32    15    16 1   
    33    15    18 ar  
    34    16    17 1   
    35    17    36 1   
    36    17    37 1   
    37    17    38 1   
    38    18    19 1   
    39    18    20 ar  
    40    19    39 1   
    41    20    21 1   
    42    21    40 1   
    43    21    41 1   
    44    22    23 1   
    45    23    42 1   
    46    23    43 1   
    47    23    44 1   
    48    24    45 1   
@<TRIPOS>SUBSTRUCTURE
     1 SLX         1 TEMP              0 ****  ****    0 ROOT
