@<TRIPOS>MOLECULE
SLX
   45    48     1     0     0
SMALL
No Charge or Current Charge


@<TRIPOS>ATOM
      1 C1           1.8450    -0.0580     0.2250 ca         1 SLX      -0.071300
      2 C2           2.4700    -1.3050     0.4550 ca         1 SLX      -0.122000
      3 C3           3.8530    -1.4560     0.2730 ca         1 SLX       0.119100
      4 C5           4.6460    -0.3660    -0.1310 ca         1 SLX       0.052100
      5 C8           4.0360     0.8890    -0.3410 ca         1 SLX      -0.153000
      6 C9           2.6480     1.0450    -0.1540 ca         1 SLX      -0.066300
      7 C10          2.0170     2.4190    -0.3740 c6         1 SLX      -0.025100
      8 C11          0.6390     2.5500     0.3010 c6         1 SLX       0.173800
      9 N12         -0.2280     1.4070    -0.0630 n3         1 SLX      -0.718600
     10 C14          0.3170     0.1120     0.4380 c6         1 SLX       0.236800
     11 C16         -0.5040    -1.0510    -0.1870 c6         1 SLX      -0.021100
     12 C17         -2.0210    -0.8310    -0.1580 ca         1 SLX      -0.057300
     13 C25         -2.8720    -1.9170    -0.4270 ca         1 SLX      -0.111000
     14 C24         -4.2650    -1.7530    -0.4120 ca         1 SLX      -0.161000
     15 C21         -4.8250    -0.4890    -0.1240 ca         1 SLX       0.106100
     16 O22         -6.1980    -0.2930    -0.0950 os         1 SLX      -0.321100
     17 C23         -7.1370    -1.3510    -0.3530 c3         1 SLX       0.145900
     18 C19         -3.9710     0.6110     0.1440 ca         1 SLX       0.114100
     19 O20         -4.5220     1.8360     0.4330 oh         1 SLX      -0.521100
     20 C18         -2.5640     0.4440     0.1190 ca         1 SLX      -0.141300
     21 C13         -1.6170     1.6180     0.4120 c6         1 SLX       0.220100
     22 O6           6.0050    -0.5710    -0.2980 os         1 SLX      -0.367100
     23 C7           6.8970     0.4830    -0.7070 c3         1 SLX       0.156900
     24 O4           4.4370    -2.6700     0.4930 oh         1 SLX      -0.536100
     25 H2           1.8930    -2.1640     0.7830 ha         1 SLX       0.130000
     26 H8           4.6220     1.7510    -0.6440 ha         1 SLX       0.116000
     27 H10          2.6810     3.2080     0.0040 hc         1 SLX       0.055700
     28 H10A         1.9090     2.5940    -1.4520 hc         1 SLX       0.055700
     29 H11          0.7720     2.5960     1.3930 h1         1 SLX       0.034200
     30 H11A         0.1820     3.5010    -0.0130 h1         1 SLX       0.034200
     31 H14          0.1580     0.0710     1.5270 h1         1 SLX       0.038700
     32 H16         -0.1880    -1.1900    -1.2300 hc         1 SLX       0.061200
     33 H16A        -0.2770    -1.9890     0.3340 hc         1 SLX       0.061200
     34 H25         -2.4510    -2.8950    -0.6480 ha         1 SLX       0.114000
     35 H24         -4.8900    -2.6160    -0.6230 ha         1 SLX       0.119000
     36 H23         -6.9980    -1.7580    -1.3630 h1         1 SLX       0.038367
     37 H23A        -7.0190    -2.1640     0.3750 h1         1 SLX       0.038367
     38 H23B        -8.1640    -0.9740    -0.2770 h1         1 SLX       0.038367
     39 HO20        -3.8060     2.4790     0.6050 ho         1 SLX       0.458000
     40 H13         -1.6190     1.7940     1.4980 h1         1 SLX       0.033700
     41 H13A        -2.0180     2.5260    -0.0620 h1         1 SLX       0.033700
     42 H7           6.6100     0.8770    -1.6910 h1         1 SLX       0.041367
     43 H7A          6.8880     1.3060     0.0190 h1         1 SLX       0.041367
     44 H7B          7.9250     0.1060    -0.7800 h1         1 SLX       0.041367
     45 HO4          5.3960    -2.5520     0.3110 ho         1 SLX       0.480000
@<TRIPOS>BOND
     1     1     2 ar  
     2     1     6 ar  
     3     1    10 1   
     4     2     3 ar  
     5     2    25 1   
     6     3     4 ar  
     7     3    24 1   
     8     4     5 ar  
     9     4    22 1   
    10     5     6 ar  
    11     5    26 1   
    12     6     7 1   
    13     7     8 1   
    14     7    27 1   
    15     7    28 1   
    16     8     9 1   
    17     8    29 1   
    18     8    30 1   
    19     9    10 1   
    20     9    21 1   
    21    10    11 1   
    22    10    31 1   
    23    11    12 1   
    24    11    32 1   
    25    11    33 1   
    26    12    13 ar  
    27    12    20 ar  
    28    13    14 ar  
    29    13    34 1   
    30    14    15 ar  
    31    14    35 1   
    32    15    16 1   
    33    15    18 ar  
    34    16    17 1   
    35    17    36 1   
    36    17    37 1   
    37    17    38 1   
    38    18    19 1   
    39    18    20 ar  
    40    19    39 1   
    41    20    21 1   
    42    21    40 1   
    43    21    41 1   
    44    22    23 1   
    45    23    42 1   
    46    23    43 1   
    47    23    44 1   
    48    24    45 1   
@<TRIPOS>SUBSTRUCTURE
     1 SLX         1 TEMP              0 ****  ****    0 ROOT
