@<TRIPOS>MOLECULE
SLY
   28    29     1     0     0
SMALL
No Charge or Current Charge


@<TRIPOS>ATOM
      1 C4          25.4890   110.0220    12.8440 ca         1 SLY      -0.102000
      2 C5          25.9130   108.6830    12.8280 ca         1 SLY      -0.117000
      3 C6          25.6260   107.8350    13.9170 ca         1 SLY       0.097100
      4 C7          25.9570   105.7170    12.7920 ca         1 SLY       0.135100
      5 C8          24.8580   105.8120    11.9160 ca         1 SLY      -0.164000
      6 C10         25.7850   104.0160    10.5590 ca         1 SLY      -0.144000
      7 N           25.6080   107.5840    17.3090 n8         1 SLY      -0.989200
      8 O           26.0570   106.5250    13.9030 os         1 SLY      -0.262200
      9 C1          24.9270   108.3340    15.0390 ca         1 SLY      -0.078300
     10 C11         26.8760   103.9110    11.4400 ca         1 SLY      -0.078000
     11 C12         26.9580   104.7590    12.5580 ca         1 SLY      -0.164000
     12 C2          24.5070   109.6800    15.0450 ca         1 SLY      -0.087000
     13 C3          24.7840   110.5190    13.9520 ca         1 SLY      -0.110000
     14 C9          24.7750   104.9640    10.7970 ca         1 SLY      -0.078000
     15 H1          25.7090   110.6740    12.0010 ha         1 SLY       0.117000
     16 H2          26.4670   108.3060    11.9720 ha         1 SLY       0.128000
     17 H3          24.0680   106.5360    12.1010 ha         1 SLY       0.126000
     18 H4          25.7200   103.3590     9.6940 ha         1 SLY       0.115000
     19 H5          25.3950   106.9080    18.0520 hn         1 SLY       0.397500
     20 H6          26.5150   107.2680    16.9460 hn         1 SLY       0.397500
     21 H8          23.6190   107.7130    16.6380 h1         1 SLY       0.036700
     22 H9          24.5600   106.3890    15.9260 h1         1 SLY       0.036700
     23 H10         27.6540   103.1730    11.2570 ha         1 SLY       0.113000
     24 H11         27.7990   104.6780    13.2420 ha         1 SLY       0.126000
     25 H12         23.9650   110.0760    15.9010 ha         1 SLY       0.118000
     26 H13         24.4560   111.5570    13.9670 ha         1 SLY       0.117000
     27 H14         23.9280   105.0390    10.1180 ha         1 SLY       0.113000
     28 C           24.6050   107.4420    16.2350 c3         1 SLY       0.199100
@<TRIPOS>BOND
     1     1     2 ar  
     2     1    13 ar  
     3     1    15 1   
     4     2     3 ar  
     5     2    16 1   
     6     3     8 1   
     7     3     9 ar  
     8     4     5 ar  
     9     4     8 1   
    10     4    11 ar  
    11     5    14 ar  
    12     5    17 1   
    13     6    10 ar  
    14     6    14 ar  
    15     6    18 1   
    16     7    19 1   
    17     7    20 1   
    18     7    28 1   
    19     9    12 ar  
    20     9    28 1   
    21    10    11 ar  
    22    10    23 1   
    23    11    24 1   
    24    12    13 ar  
    25    12    25 1   
    26    13    26 1   
    27    14    27 1   
    28    21    28 1   
    29    22    28 1   
@<TRIPOS>SUBSTRUCTURE
     1 SLY         1 TEMP              0 ****  ****    0 ROOT
