@<TRIPOS>MOLECULE
SLY
   28    29     1     0     0
SMALL
abcg2


@<TRIPOS>ATOM
      1 C4          25.5500   110.3900    13.0080 ca         1 SLY      -0.102000
      2 C5          26.2270   109.1860    12.8800 ca         1 SLY      -0.117000
      3 C6          25.9310   108.1410    13.7430 ca         1 SLY       0.097100
      4 C7          26.2090   105.9890    12.8080 ca         1 SLY       0.135100
      5 C8          25.0400   106.0780    12.0600 ca         1 SLY      -0.164000
      6 C10         25.4530   103.8680    11.1720 ca         1 SLY      -0.144000
      7 N           25.6750   107.0670    16.7400 n8         1 SLY      -0.989200
      8 O           26.6490   106.9730    13.6410 os         1 SLY      -0.262200
      9 C1          24.9600   108.2590    14.7350 ca         1 SLY      -0.078300
     10 C11         26.6190   103.7930    11.9260 ca         1 SLY      -0.078000
     11 C12         27.0000   104.8450    12.7420 ca         1 SLY      -0.164000
     12 C2          24.2990   109.4800    14.8450 ca         1 SLY      -0.087000
     13 C3          24.5810   110.5370    13.9910 ca         1 SLY      -0.110000
     14 C9          24.6730   105.0120    11.2460 ca         1 SLY      -0.078000
     15 H1          25.7800   111.2100    12.3390 ha         1 SLY       0.117000
     16 H2          26.9890   109.0600    12.1220 ha         1 SLY       0.128000
     17 H3          24.4120   106.9580    12.1010 ha         1 SLY       0.126000
     18 H4          25.1580   103.0440    10.5350 ha         1 SLY       0.115000
     19 H5          25.4010   106.3600    17.4120 hn         1 SLY       0.397500
     20 H6          26.5510   106.7430    16.3490 hn         1 SLY       0.397500
     21 H8          23.7010   107.3180    16.1540 h1         1 SLY       0.036700
     22 H9          24.5530   106.1900    15.1290 h1         1 SLY       0.036700
     23 H10         27.2390   102.9070    11.8820 ha         1 SLY       0.113000
     24 H11         27.9070   104.7870    13.3300 ha         1 SLY       0.126000
     25 H12         23.5420   109.5970    15.6110 ha         1 SLY       0.118000
     26 H13         24.0500   111.4730    14.0970 ha         1 SLY       0.117000
     27 H14         23.7620   105.0860    10.6660 ha         1 SLY       0.113000
     28 C           24.6680   107.1280    15.6860 c3         1 SLY       0.199100
@<TRIPOS>BOND
     1     1     2 ar  
     2     1    13 ar  
     3     1    15 1   
     4     2     3 ar  
     5     2    16 1   
     6     3     8 1   
     7     3     9 ar  
     8     4     5 ar  
     9     4     8 1   
    10     4    11 ar  
    11     5    14 ar  
    12     5    17 1   
    13     6    10 ar  
    14     6    14 ar  
    15     6    18 1   
    16     7    19 1   
    17     7    20 1   
    18     7    28 1   
    19     9    12 ar  
    20     9    28 1   
    21    10    11 ar  
    22    10    23 1   
    23    11    24 1   
    24    12    13 ar  
    25    12    25 1   
    26    13    26 1   
    27    14    27 1   
    28    21    28 1   
    29    22    28 1   
@<TRIPOS>SUBSTRUCTURE
     1 SLY         1 TEMP              0 ****  ****    0 ROOT
