@<TRIPOS>MOLECULE
SM1
   61    62     1     0     0
SMALL
bcc


@<TRIPOS>ATOM
      1 N6          -1.4660     2.0460   -10.4570 nv         1 SM1      -0.963800
      2 C18         -0.8800     1.1780    -9.5630 c2         1 SM1       0.818100
      3 N5           0.1260     0.4250    -9.7990 n2         1 SM1      -0.880100
      4 N4          -1.5500     1.1500    -8.3600 nu         1 SM1      -0.736600
      5 C14         -1.2910     0.4180    -7.2120 ca         1 SM1       0.200600
      6 C13         -0.2120    -0.4540    -7.0440 ca         1 SM1      -0.183000
      7 C12         -0.0510    -1.1330    -5.8450 ca         1 SM1      -0.080000
      8 C17         -0.9410    -0.9860    -4.7880 ca         1 SM1      -0.160300
      9 C16         -2.0130    -0.1150    -4.9620 ca         1 SM1      -0.080000
     10 C15         -2.1880     0.5750    -6.1460 ca         1 SM1      -0.183000
     11 C11         -0.7380    -1.7190    -3.4940 c3         1 SM1       0.159300
     12 N3           0.1160    -0.9480    -2.6030 ns         1 SM1      -0.562900
     13 C10          0.6280    -1.4600    -1.4820 c          1 SM1       0.656100
     14 O5           0.4140    -2.6060    -1.1080 o          1 SM1      -0.623100
     15 C8           1.5590    -0.5270    -0.7110 c3         1 SM1       0.036700
     16 C22          2.9290    -0.4800    -1.3910 c3         1 SM1      -0.108100
     17 N2           1.6390    -1.0100     0.6460 ns         1 SM1      -0.557900
     18 C7           1.9820    -0.2400     1.6850 c          1 SM1       0.663100
     19 C5           2.0820    -0.9930     3.0170 c3         1 SM1       0.139500
     20 C6           3.3440    -1.8450     3.0550 c3         1 SM1       0.144400
     21 O3           4.4460    -0.9980     2.8530 oh         1 SM1      -0.589800
     22 N1           2.0830    -0.0820     4.1440 n7         1 SM1      -0.823100
     23 O4           2.2210     0.9530     1.6010 o          1 SM1      -0.593100
     24 O2           0.9750     1.9080     5.1890 o          1 SM1      -0.599800
     25 S1           0.6530     0.6230     4.5870 s6         1 SM1       1.204900
     26 O1          -0.3110     0.5670     3.4950 o          1 SM1      -0.599800
     27 C1           0.0710    -0.4920     5.8720 c3         1 SM1      -0.135300
     28 C4          -1.2670    -0.0410     6.3670 ca         1 SM1      -0.084300
     29 C19         -2.4340    -0.4910     5.7550 ca         1 SM1      -0.103000
     30 C20         -3.6730    -0.0590     6.2050 ca         1 SM1      -0.128000
     31 C21         -3.7560     0.8330     7.2670 ca         1 SM1      -0.117000
     32 C2          -2.5950     1.2880     7.8780 ca         1 SM1      -0.128000
     33 C3          -1.3560     0.8570     7.4270 ca         1 SM1      -0.103000
     34 H6N1        -0.9060     2.2670   -11.2650 hn         1 SM1       0.402800
     35 H6N2        -1.9190     2.8650   -10.0810 hn         1 SM1       0.402800
     36 H51          0.4910     0.6060   -10.7270 hn         1 SM1       0.385400
     37 H4          -2.3880     1.7070    -8.3160 hn         1 SM1       0.436800
     38 H13          0.4850    -0.6050    -7.8520 ha         1 SM1       0.153000
     39 H12          0.7920    -1.8070    -5.7430 ha         1 SM1       0.133500
     40 H16         -2.7310     0.0270    -4.1620 ha         1 SM1       0.133500
     41 H15         -3.0340     1.2440    -6.2500 ha         1 SM1       0.153000
     42 H111        -1.7000    -1.9130    -3.0130 h1         1 SM1       0.058200
     43 H112        -0.2730    -2.6890    -3.6800 h1         1 SM1       0.058200
     44 H3           0.2790     0.0210    -2.8260 hn         1 SM1       0.324500
     45 H8           1.1320     0.4780    -0.6990 h1         1 SM1       0.085700
     46 H221         3.3620    -1.4780    -1.4580 hc         1 SM1       0.050367
     47 H222         2.8520    -0.0710    -2.3980 hc         1 SM1       0.050367
     48 H223         3.6080     0.1530    -0.8230 hc         1 SM1       0.050367
     49 H2           1.4430    -1.9910     0.7850 hn         1 SM1       0.336500
     50 H5           1.2370    -1.6790     3.1160 h1         1 SM1       0.078700
     51 H6C1         3.2700    -2.6190     2.2830 h1         1 SM1       0.032700
     52 H6C2         3.3810    -2.3550     4.0240 h1         1 SM1       0.032700
     53 HA           5.2500    -1.5180     2.9420 ho         1 SM1       0.412000
     54 H1           2.8420     0.5920     4.1360 hn         1 SM1       0.462800
     55 H1C1         0.8320    -0.4880     6.6520 h1         1 SM1       0.097700
     56 H1C2         0.0340    -1.4890     5.4310 h1         1 SM1       0.097700
     57 H19         -2.3750    -1.1930     4.9330 ha         1 SM1       0.137000
     58 H20         -4.5740    -0.4180     5.7270 ha         1 SM1       0.133000
     59 H21         -4.7230     1.1660     7.6200 ha         1 SM1       0.131000
     60 HC          -2.6540     1.9810     8.7080 ha         1 SM1       0.133000
     61 HB          -0.4540     1.2100     7.9110 ha         1 SM1       0.137000
@<TRIPOS>BOND
     1     1     2 1   
     2     1    34 1   
     3     1    35 1   
     4     2     3 2   
     5     2     4 1   
     6     3    36 1   
     7     4     5 1   
     8     4    37 1   
     9     5     6 ar  
    10     5    10 ar  
    11     6     7 ar  
    12     6    38 1   
    13     7     8 ar  
    14     7    39 1   
    15     8     9 ar  
    16     8    11 1   
    17     9    10 ar  
    18     9    40 1   
    19    10    41 1   
    20    11    12 1   
    21    11    42 1   
    22    11    43 1   
    23    12    13 1   
    24    12    44 1   
    25    13    14 2   
    26    13    15 1   
    27    15    16 1   
    28    15    17 1   
    29    15    45 1   
    30    16    46 1   
    31    16    47 1   
    32    16    48 1   
    33    17    18 1   
    34    17    49 1   
    35    18    19 1   
    36    18    23 2   
    37    19    20 1   
    38    19    22 1   
    39    19    50 1   
    40    20    21 1   
    41    20    51 1   
    42    20    52 1   
    43    21    53 1   
    44    22    25 1   
    45    22    54 1   
    46    24    25 2   
    47    25    26 2   
    48    25    27 1   
    49    27    28 1   
    50    27    55 1   
    51    27    56 1   
    52    28    29 ar  
    53    28    33 ar  
    54    29    30 ar  
    55    29    57 1   
    56    30    31 ar  
    57    30    58 1   
    58    31    32 ar  
    59    31    59 1   
    60    32    33 ar  
    61    32    60 1   
    62    33    61 1   
@<TRIPOS>SUBSTRUCTURE
     1 SM1         1 TEMP              0 ****  ****    0 ROOT
