@<TRIPOS>MOLECULE
SM1
   61    62     1     0     0
SMALL
No Charge or Current Charge


@<TRIPOS>ATOM
      1 N6          -2.2460     1.8280    -9.4800 nv         1 SM1      -1.074200
      2 C18         -2.0660     0.7520    -8.7630 c2         1 SM1       0.818100
      3 N5          -2.6710    -0.3310    -8.8630 n2         1 SM1      -0.880100
      4 N4          -1.6140     1.2290    -7.6300 nu         1 SM1      -0.930200
      5 C14         -1.4760     0.6160    -6.3900 ca         1 SM1       0.339000
      6 C13         -0.7960    -0.6060    -6.2600 ca         1 SM1      -0.165000
      7 C12         -0.6430    -1.2050    -4.9970 ca         1 SM1      -0.062000
      8 C17         -1.1650    -0.5780    -3.8500 ca         1 SM1      -0.160300
      9 C16         -1.8360     0.6540    -3.9780 ca         1 SM1      -0.062000
     10 C15         -1.9860     1.2480    -5.2440 ca         1 SM1      -0.165000
     11 C11         -0.9970    -1.2190    -2.4830 c3         1 SM1       0.159300
     12 N3           0.2530    -0.7930    -1.8640 ns         1 SM1      -0.495900
     13 C10          0.6860    -1.2130    -0.6270 c          1 SM1       0.589100
     14 O5           0.0280    -1.9910     0.0540 o          1 SM1      -0.623100
     15 C8           2.0520    -0.6260    -0.1640 c3         1 SM1       0.036700
     16 C22          3.2250    -1.1120    -1.0470 c3         1 SM1      -0.108100
     17 N2           2.2950    -0.9590     1.2560 ns         1 SM1      -0.490900
     18 C7           3.1140    -0.2460     2.1120 c          1 SM1       0.596100
     19 C5           3.1350    -0.7610     3.5960 c3         1 SM1       0.139500
     20 C6           4.5770    -1.1750     4.0090 c3         1 SM1       0.167600
     21 O3           5.3970    -0.0260     4.3000 oh         1 SM1      -0.652000
     22 N1           2.5670     0.1890     4.6160 n7         1 SM1      -0.878300
     23 O4           3.7470     0.7300     1.7240 o          1 SM1      -0.593100
     24 O2           0.8080     1.6030     5.6820 o          1 SM1      -0.529000
     25 S1           1.0370     0.8350     4.4560 s6         1 SM1       1.174100
     26 O1           0.9750     1.4820     3.1460 o          1 SM1      -0.529000
     27 C1          -0.0190    -0.6280     4.4900 c3         1 SM1      -0.246100
     28 C4          -1.5070    -0.3280     4.3530 ca         1 SM1      -0.084300
     29 C19         -2.1090    -0.3040     3.0800 ca         1 SM1      -0.085000
     30 C20         -3.4810    -0.0290     2.9510 ca         1 SM1      -0.110000
     31 C21         -4.2590     0.2240     4.0930 ca         1 SM1      -0.099000
     32 C2          -3.6630     0.1990     5.3660 ca         1 SM1      -0.110000
     33 C3          -2.2900    -0.0760     5.4950 ca         1 SM1      -0.085000
     34 H6N1        -2.7390     1.6420   -10.3430 hn         1 SM1       0.458000
     35 H6N2        -1.3760     2.3220    -9.6260 hn         1 SM1       0.458000
     36 H51         -3.1460    -0.3430    -9.7700 hn         1 SM1       0.385400
     37 H4          -1.8980     2.1950    -7.5810 hn         1 SM1       0.492000
     38 H13         -0.3860    -1.0930    -7.1400 ha         1 SM1       0.135000
     39 H12         -0.1150    -2.1530    -4.9110 ha         1 SM1       0.115500
     40 H16         -2.2380     1.1520    -3.0990 ha         1 SM1       0.115500
     41 H15         -2.5040     2.1990    -5.3320 ha         1 SM1       0.135000
     42 H111        -1.8350    -0.9380    -1.8310 h1         1 SM1       0.058200
     43 H112        -0.9940    -2.3130    -2.5810 h1         1 SM1       0.058200
     44 H3           0.8440    -0.1480    -2.3720 hn         1 SM1       0.324500
     45 H8           1.9710     0.4660    -0.2570 h1         1 SM1       0.085700
     46 H221         3.3210    -2.2040    -0.9960 hc         1 SM1       0.050367
     47 H222         3.0710    -0.8300    -2.0960 hc         1 SM1       0.050367
     48 H223         4.1720    -0.6690    -0.7170 hc         1 SM1       0.050367
     49 H2           1.7790    -1.7410     1.6470 hn         1 SM1       0.336500
     50 H5           2.5470    -1.6880     3.6020 h1         1 SM1       0.078700
     51 H6C1         5.0250    -1.7780     3.2070 h1         1 SM1       0.032700
     52 H6C2         4.5090    -1.8130     4.9000 h1         1 SM1       0.032700
     53 HA           6.2650    -0.3650     4.6150 ho         1 SM1       0.451000
     54 H1           3.1370     1.0360     4.6040 hn         1 SM1       0.518000
     55 H1C1         0.1910    -1.1300     5.4400 h1         1 SM1       0.097700
     56 H1C2         0.3100    -1.2690     3.6680 h1         1 SM1       0.097700
     57 H19         -1.5140    -0.4990     2.1890 ha         1 SM1       0.119000
     58 H20         -3.9410    -0.0110     1.9650 ha         1 SM1       0.115000
     59 H21         -5.3210     0.4370     3.9930 ha         1 SM1       0.113000
     60 HC          -4.2640     0.3940     6.2510 ha         1 SM1       0.115000
     61 HB          -1.8360    -0.0930     6.4840 ha         1 SM1       0.119000
@<TRIPOS>BOND
     1     1     2 1   
     2     1    34 1   
     3     1    35 1   
     4     2     3 2   
     5     2     4 1   
     6     3    36 1   
     7     4     5 1   
     8     4    37 1   
     9     5     6 ar  
    10     5    10 ar  
    11     6     7 ar  
    12     6    38 1   
    13     7     8 ar  
    14     7    39 1   
    15     8     9 ar  
    16     8    11 1   
    17     9    10 ar  
    18     9    40 1   
    19    10    41 1   
    20    11    12 1   
    21    11    42 1   
    22    11    43 1   
    23    12    13 1   
    24    12    44 1   
    25    13    14 2   
    26    13    15 1   
    27    15    16 1   
    28    15    17 1   
    29    15    45 1   
    30    16    46 1   
    31    16    47 1   
    32    16    48 1   
    33    17    18 1   
    34    17    49 1   
    35    18    19 1   
    36    18    23 2   
    37    19    20 1   
    38    19    22 1   
    39    19    50 1   
    40    20    21 1   
    41    20    51 1   
    42    20    52 1   
    43    21    53 1   
    44    22    25 1   
    45    22    54 1   
    46    24    25 2   
    47    25    26 2   
    48    25    27 1   
    49    27    28 1   
    50    27    55 1   
    51    27    56 1   
    52    28    29 ar  
    53    28    33 ar  
    54    29    30 ar  
    55    29    57 1   
    56    30    31 ar  
    57    30    58 1   
    58    31    32 ar  
    59    31    59 1   
    60    32    33 ar  
    61    32    60 1   
    62    33    61 1   
@<TRIPOS>SUBSTRUCTURE
     1 SM1         1 TEMP              0 ****  ****    0 ROOT
