@<TRIPOS>MOLECULE
SM5
   51    55     1     0     0
SMALL
No Charge or Current Charge


@<TRIPOS>ATOM
      1 C18         -4.1390     0.5010     0.0330 c6         1 SM5       0.092300
      2 N4          -2.7550    -0.0320     0.0290 na         1 SM5       0.146800
      3 C14          3.2150    -0.3160     0.6000 ca         1 SM5      -0.060000
      4 C13          1.8560    -0.6830     0.5740 ca         1 SM5      -0.111000
      5 C12          0.8650     0.2190     0.1070 ca         1 SM5       0.019000
      6 C17          1.2620     1.5200    -0.2910 ca         1 SM5      -0.106000
      7 C16          2.6200     1.8740    -0.2640 ca         1 SM5      -0.068300
      8 C15          3.5650     0.9640     0.1500 ca         1 SM5      -0.146900
      9 C11          0.5030    -2.9550    -1.1040 ca         1 SM5      -0.144000
     10 N3          -2.4920    -1.3820     0.0020 nc         1 SM5      -0.513800
     11 C10          1.0690    -4.2330    -1.2490 ca         1 SM5       0.327400
     12 C8          -0.3220    -5.1160     0.3780 ca         1 SM5       0.327400
     13 C22         -5.8630     1.9200    -1.1930 c6         1 SM5       0.151300
     14 C7          -0.9410    -3.8710     0.5860 ca         1 SM5      -0.144000
     15 C5          -1.6030     0.7480     0.0390 cc         1 SM5      -0.162000
     16 C6          -0.5100    -2.7470    -0.1460 ca         1 SM5      -0.077500
     17 C1          -0.5690    -0.1490     0.0860 cd         1 SM5      -0.144000
     18 C19         -4.4300     1.3270     1.3140 c6         1 SM5      -0.130900
     19 C20         -5.8670     1.8940     1.2820 c6         1 SM5       0.151300
     20 C2          -1.1730    -1.4380    -0.0040 cd         1 SM5       0.308500
     21 N9           0.6730    -5.3030    -0.5210 nb         1 SM5      -0.663000
     22 N21         -6.0890     2.6940     0.0530 n7         1 SM5      -0.844400
     23 C23         -4.4260     1.3540    -1.2320 c6         1 SM5      -0.130900
     24 C24          3.2150     3.2250    -0.6490 c5         1 SM5      -0.034100
     25 C25          4.7630     3.0810    -0.3030 c5         1 SM5      -0.139700
     26 C26          4.8720     1.6110     0.1180 ce         1 SM5       0.426900
     27 N27          5.9250     1.1630     0.7470 n2         1 SM5      -0.331700
     28 O28          7.1580     1.7650     0.4090 oh         1 SM5      -0.516000
     29 H18         -4.8230    -0.3600     0.0220 h1         1 SM5       0.091700
     30 H13          1.5790    -1.6590     0.9570 ha         1 SM5       0.124000
     31 H17          0.5310     2.2460    -0.6340 ha         1 SM5       0.115000
     32 H11          0.8510    -2.1410    -1.7330 ha         1 SM5       0.131500
     33 H10          1.8600    -4.4090    -1.9770 h4         1 SM5       0.018600
     34 H8          -0.6350    -5.9920     0.9440 h4         1 SM5       0.018600
     35 H122        -6.5870     1.0930    -1.2510 h1         1 SM5       0.059700
     36 H222        -6.0300     2.5660    -2.0690 h1         1 SM5       0.059700
     37 H7          -1.7420    -3.7870     1.3160 ha         1 SM5       0.131500
     38 H5          -1.6250     1.8300     0.0490 h4         1 SM5       0.157000
     39 H119        -4.3010     0.6960     2.2040 hc         1 SM5       0.057450
     40 H219        -3.7120     2.1530     1.4080 hc         1 SM5       0.057450
     41 H120        -6.5910     1.0650     1.3200 h1         1 SM5       0.059700
     42 H220        -6.0370     2.5210     2.1710 h1         1 SM5       0.059700
     43 H123        -3.7080     2.1820    -1.3060 hc         1 SM5       0.057450
     44 H223        -4.2940     0.7420    -2.1350 hc         1 SM5       0.057450
     45 H24          3.0630     3.4370    -1.7140 hc         1 SM5       0.056700
     46 H25          5.3950     3.2980    -1.1710 hc         1 SM5       0.069700
     47 HO28         7.8310     1.3100     0.9710 ho         1 SM5       0.467000
     48 H121        -5.4400     3.4910     0.0620 hn         1 SM5       0.407000
     49 H22          2.7540     4.0480    -0.0910 hc         1 SM5       0.056700
     50 H23          5.0630     3.7510     0.5090 hc         1 SM5       0.069700
     51 H14          3.9710    -1.0060     0.9690 ha         1 SM5       0.131000
@<TRIPOS>BOND
     1     1     2 1   
     2     1    18 1   
     3     1    23 1   
     4     1    29 1   
     5     2    10 1   
     6     2    15 1   
     7     3     4 ar  
     8     3     8 ar  
     9     3    51 1   
    10     4     5 ar  
    11     4    30 1   
    12     5     6 ar  
    13     5    17 1   
    14     6     7 ar  
    15     6    31 1   
    16     7     8 ar  
    17     7    24 1   
    18     8    26 1   
    19     9    11 ar  
    20     9    16 ar  
    21     9    32 1   
    22    10    20 2   
    23    11    21 ar  
    24    11    33 1   
    25    12    14 ar  
    26    12    21 ar  
    27    12    34 1   
    28    13    22 1   
    29    13    23 1   
    30    13    35 1   
    31    13    36 1   
    32    14    16 ar  
    33    14    37 1   
    34    15    17 2   
    35    15    38 1   
    36    16    20 1   
    37    17    20 1   
    38    18    19 1   
    39    18    39 1   
    40    18    40 1   
    41    19    22 1   
    42    19    41 1   
    43    19    42 1   
    44    22    48 1   
    45    23    43 1   
    46    23    44 1   
    47    24    25 1   
    48    24    45 1   
    49    24    49 1   
    50    25    26 1   
    51    25    46 1   
    52    25    50 1   
    53    26    27 2   
    54    27    28 1   
    55    28    47 1   
@<TRIPOS>SUBSTRUCTURE
     1 SM5         1 TEMP              0 ****  ****    0 ROOT
