@<TRIPOS>MOLECULE
SM5
   51    55     1     0     0
SMALL
abcg2


@<TRIPOS>ATOM
      1 C18         -4.1000     0.5410    -0.0820 c6         1 SM5       0.092300
      2 N4          -2.7190     0.0820    -0.1280 na         1 SM5       0.146800
      3 C14          3.0600     0.0030     1.0760 ca         1 SM5      -0.060000
      4 C13          1.7320    -0.3570     0.9390 ca         1 SM5      -0.111000
      5 C12          0.8790     0.3380     0.0690 ca         1 SM5       0.019000
      6 C17          1.3790     1.4170    -0.6600 ca         1 SM5      -0.106000
      7 C16          2.7070     1.7860    -0.5200 ca         1 SM5      -0.068300
      8 C15          3.5420     1.0790     0.3380 ca         1 SM5      -0.146900
      9 C11          0.6920    -2.8460    -0.9200 ca         1 SM5      -0.144000
     10 N3          -2.4530    -1.2120    -0.1900 nc         1 SM5      -0.513800
     11 C10          1.2150    -4.1270    -0.9890 ca         1 SM5       0.327400
     12 C8          -0.5240    -4.9990     0.1760 ca         1 SM5       0.327400
     13 C22         -5.8140     2.1310    -0.9470 c6         1 SM5       0.151300
     14 C7          -1.1310    -3.7600     0.3050 ca         1 SM5      -0.144000
     15 C5          -1.6050     0.8260    -0.0410 cc         1 SM5      -0.162000
     16 C6          -0.5120    -2.6420    -0.2500 ca         1 SM5      -0.077500
     17 C1          -0.5310    -0.0400    -0.0520 cd         1 SM5      -0.144000
     18 C19         -4.5140     0.9260     1.3350 c6         1 SM5      -0.130900
     19 C20         -5.9670     1.4030     1.3390 c6         1 SM5       0.151300
     20 C2          -1.1320    -1.3180    -0.1530 cd         1 SM5       0.308500
     21 N9           0.6300    -5.1930    -0.4530 nb         1 SM5      -0.663000
     22 N21         -6.2390     2.4750     0.3980 n7         1 SM5      -0.844400
     23 C23         -4.3500     1.6950    -1.0450 c6         1 SM5      -0.130900
     24 C24          3.4410     2.9050    -1.2050 c5         1 SM5      -0.034100
     25 C25          4.8890     2.8010    -0.6860 c5         1 SM5      -0.139700
     26 C26          4.8830     1.6550     0.2940 ce         1 SM5       0.426900
     27 N27          5.8370     1.2020     0.9990 n2         1 SM5      -0.331700
     28 O28          7.0050     1.8890     0.7990 oh         1 SM5      -0.516000
     29 H18         -4.6910    -0.3200    -0.4040 h1         1 SM5       0.091700
     30 H13          1.3410    -1.1820     1.5200 ha         1 SM5       0.124000
     31 H17          0.7300     1.9520    -1.3430 ha         1 SM5       0.115000
     32 H11          1.2160    -2.0310    -1.4000 ha         1 SM5       0.131500
     33 H10          2.1510    -4.2970    -1.5080 h4         1 SM5       0.018600
     34 H8          -0.9940    -5.8750     0.6080 h4         1 SM5       0.018600
     35 H122        -6.4530     1.3190    -1.3110 h1         1 SM5       0.059700
     36 H222        -5.9890     2.9840    -1.6050 h1         1 SM5       0.059700
     37 H7          -2.0660    -3.6690     0.8410 ha         1 SM5       0.131500
     38 H5          -1.6320     1.9000     0.0520 h4         1 SM5       0.157000
     39 H119        -4.3920     0.0750     2.0090 hc         1 SM5       0.057450
     40 H219        -3.8660     1.7300     1.7020 hc         1 SM5       0.057450
     41 H120        -6.6240     0.5600     1.0970 h1         1 SM5       0.059700
     42 H220        -6.2440     1.7330     2.3420 h1         1 SM5       0.059700
     43 H123        -3.7070     2.5450    -0.7980 hc         1 SM5       0.057450
     44 H223        -4.1130     1.3930    -2.0680 hc         1 SM5       0.057450
     45 H24          3.3880     2.8070    -2.2900 hc         1 SM5       0.056700
     46 H25          5.5980     2.6070    -1.4940 hc         1 SM5       0.069700
     47 HO28         7.6330     1.4600     1.3900 ho         1 SM5       0.467000
     48 H121        -5.7500     3.3100     0.6980 hn         1 SM5       0.407000
     49 H22          2.9950     3.8700    -0.9580 hc         1 SM5       0.056700
     50 H23          5.2180     3.7230    -0.2040 hc         1 SM5       0.069700
     51 H14          3.7070    -0.5410     1.7520 ha         1 SM5       0.131000
@<TRIPOS>BOND
     1     1     2 1   
     2     1    18 1   
     3     1    23 1   
     4     1    29 1   
     5     2    10 1   
     6     2    15 1   
     7     3     4 ar  
     8     3     8 ar  
     9     3    51 1   
    10     4     5 ar  
    11     4    30 1   
    12     5     6 ar  
    13     5    17 1   
    14     6     7 ar  
    15     6    31 1   
    16     7     8 ar  
    17     7    24 1   
    18     8    26 1   
    19     9    11 ar  
    20     9    16 ar  
    21     9    32 1   
    22    10    20 2   
    23    11    21 ar  
    24    11    33 1   
    25    12    14 ar  
    26    12    21 ar  
    27    12    34 1   
    28    13    22 1   
    29    13    23 1   
    30    13    35 1   
    31    13    36 1   
    32    14    16 ar  
    33    14    37 1   
    34    15    17 2   
    35    15    38 1   
    36    16    20 1   
    37    17    20 1   
    38    18    19 1   
    39    18    39 1   
    40    18    40 1   
    41    19    22 1   
    42    19    41 1   
    43    19    42 1   
    44    22    48 1   
    45    23    43 1   
    46    23    44 1   
    47    24    25 1   
    48    24    45 1   
    49    24    49 1   
    50    25    26 1   
    51    25    46 1   
    52    25    50 1   
    53    26    27 2   
    54    27    28 1   
    55    28    47 1   
@<TRIPOS>SUBSTRUCTURE
     1 SM5         1 TEMP              0 ****  ****    0 ROOT
