@<TRIPOS>MOLECULE
SM6
   43    46     1     0     0
SMALL
No Charge or Current Charge


@<TRIPOS>ATOM
      1 C1          -3.9450     0.1910     0.0910 ca         1 SM6      -0.130000
      2 C2          -3.5420    -0.0620    -1.2150 ca         1 SM6      -0.009000
      3 C3          -2.1860    -0.2050    -1.5400 ca         1 SM6      -0.141000
      4 C4          -1.2200    -0.0780    -0.5260 ca         1 SM6       0.300000
      5 C5          -1.6290     0.1600     0.8040 ca         1 SM6      -0.160000
      6 C6          -2.9950     0.2980     1.1210 ca         1 SM6      -0.030000
      7 C7          -5.3130     0.2850     0.2100 c2         1 SM6       0.087800
      8 C8          -5.8270    -0.0210    -1.1990 c5         1 SM6      -0.029000
      9 C9          -4.5910    -0.1710    -2.0880 c2         1 SM6      -0.263200
     10 N10          0.1280    -0.2330    -0.8470 nu         1 SM6      -0.827000
     11 C11          1.2900     0.1160    -0.1940 cc         1 SM6       0.269800
     12 N12         -6.1100     0.0990     1.3430 nu         1 SM6      -0.544700
     13 C13          1.4890     1.3670     0.5190 ca         1 SM6      -0.081800
     14 C14          2.7160     1.4520     1.1430 ca         1 SM6      -0.214000
     15 S15          3.7230     0.0190     0.9090 ss         1 SM6       0.156400
     16 C16          2.4310    -0.6680    -0.1200 cd         1 SM6      -0.246600
     17 C17          2.5960    -1.9600    -0.8170 c          1 SM6       0.648300
     18 O18          1.7510    -2.4400    -1.5650 o          1 SM6      -0.521000
     19 C19          0.6290     2.4780     0.5880 ca         1 SM6      -0.097000
     20 C20          1.0530     3.6020     1.3260 ca         1 SM6       0.309900
     21 N21          2.2540     3.6710     1.9580 nb         1 SM6      -0.650000
     22 C22          3.0820     2.6010     1.8600 ca         1 SM6       0.362900
     23 O23         -5.9130     1.1080     2.3720 oh         1 SM6      -0.432300
     24 O24          3.8030    -2.5600    -0.5750 os         1 SM6      -0.446100
     25 C25          5.4810    -4.2610    -0.7740 c3         1 SM6      -0.098100
     26 C26          4.0780    -3.8170    -1.2150 c3         1 SM6       0.171600
     27 H3          -1.8860    -0.4050    -2.5650 ha         1 SM6       0.122000
     28 H5          -0.8910     0.2290     1.5970 ha         1 SM6       0.123000
     29 H6          -3.3010     0.4790     2.1480 ha         1 SM6       0.119000
     30 H8          -6.4280    -0.9380    -1.2090 hc         1 SM6       0.081700
     31 H9          -4.5530    -0.5460    -3.1130 ha         1 SM6       0.201000
     32 HN10         0.2950    -0.9500    -1.5580 hn         1 SM6       0.527000
     33 HN12        -7.1180    -0.0240     1.1630 hn         1 SM6       0.468000
     34 H19         -0.3320     2.4900     0.0850 ha         1 SM6       0.140000
     35 H20          0.4130     4.4800     1.4080 h4         1 SM6       0.023100
     36 H22          4.0490     2.6750     2.3570 h4         1 SM6       0.027100
     37 HO23        -5.9540     0.6360     3.2410 ho         1 SM6       0.461000
     38 H25          5.7390    -5.2200    -1.2370 hc         1 SM6       0.047367
     39 H25A         6.2320    -3.5210    -1.0730 hc         1 SM6       0.047367
     40 H25B         5.5230    -4.3830     0.3150 hc         1 SM6       0.047367
     41 H26          3.3430    -4.5780    -0.9190 h1         1 SM6       0.049200
     42 H26A         4.0530    -3.7140    -2.3090 h1         1 SM6       0.049200
     43 H8A         -6.4710     0.7890    -1.5600 hc         1 SM6       0.081700
@<TRIPOS>BOND
     1     1     2 ar  
     2     1     6 ar  
     3     1     7 2   
     4     2     3 ar  
     5     2     9 2   
     6     3     4 ar  
     7     3    27 1   
     8     4     5 ar  
     9     4    10 1   
    10     5     6 ar  
    11     5    28 1   
    12     6    29 1   
    13     7     8 1   
    14     7    12 1   
    15     8     9 1   
    16     8    30 1   
    17     8    43 1   
    18     9    31 1   
    19    10    11 1   
    20    10    32 1   
    21    11    13 1   
    22    11    16 2   
    23    12    23 1   
    24    12    33 1   
    25    13    14 ar  
    26    13    19 ar  
    27    14    15 1   
    28    14    22 ar  
    29    15    16 1   
    30    16    17 1   
    31    17    18 2   
    32    17    24 1   
    33    19    20 ar  
    34    19    34 1   
    35    20    21 ar  
    36    20    35 1   
    37    21    22 ar  
    38    22    36 1   
    39    23    37 1   
    40    24    26 1   
    41    25    26 1   
    42    25    38 1   
    43    25    39 1   
    44    25    40 1   
    45    26    41 1   
    46    26    42 1   
@<TRIPOS>SUBSTRUCTURE
     1 SM6         1 TEMP              0 ****  ****    0 ROOT
