@<TRIPOS>MOLECULE
SM6
   43    46     1     0     0
SMALL
bcc


@<TRIPOS>ATOM
      1 C1          -3.9170     0.1570     0.1870 ca         1 SM6      -0.130000
      2 C2          -3.5680     0.0210    -1.2360 ca         1 SM6      -0.009000
      3 C3          -2.1910    -0.1740    -1.5930 ca         1 SM6      -0.159000
      4 C4          -1.2510    -0.2580    -0.6200 ca         1 SM6       0.161600
      5 C5          -1.6050    -0.1680     0.7840 ca         1 SM6      -0.178000
      6 C6          -2.8840     0.0380     1.1700 ca         1 SM6      -0.048000
      7 C7          -5.2690     0.3590     0.2670 c2         1 SM6       0.087800
      8 C8          -5.8510     0.3710    -1.1160 c5         1 SM6      -0.029000
      9 C9          -4.6740     0.1350    -2.0080 c2         1 SM6      -0.213200
     10 N10          0.0820    -0.5180    -0.9690 nu         1 SM6      -0.633400
     11 C11          1.1840    -0.0940    -0.2950 cc         1 SM6       0.269800
     12 N12         -6.0920     0.4720     1.3440 nu         1 SM6      -0.489500
     13 C13          1.2830     1.1790     0.3860 ca         1 SM6      -0.081800
     14 C14          2.5470     1.3620     0.9610 ca         1 SM6      -0.152400
     15 S15          3.6240     0.0530     0.6560 ss         1 SM6       0.029500
     16 C16          2.3790    -0.7780    -0.2350 cd         1 SM6      -0.246600
     17 C17          2.6470    -2.0790    -0.8220 c          1 SM6       0.697300
     18 O18          1.8610    -2.6940    -1.5120 o          1 SM6      -0.570000
     19 C19          0.3660     2.2300     0.4930 ca         1 SM6      -0.180300
     20 C20          0.7510     3.3560     1.1880 ca         1 SM6       0.375200
     21 N21          1.9500     3.5070     1.7670 nb         1 SM6      -0.650000
     22 C22          2.8330     2.5400     1.6530 ca         1 SM6       0.428200
     23 O23         -5.4930     0.8600     2.5250 oh         1 SM6      -0.393300
     24 O24          3.8600    -2.5100    -0.5120 os         1 SM6      -0.422900
     25 C25          5.7060    -4.0110    -0.5750 c3         1 SM6      -0.098100
     26 C26          4.2830    -3.7850    -1.0230 c3         1 SM6       0.148400
     27 H3          -1.9090    -0.2520    -2.6370 ha         1 SM6       0.140000
     28 H5          -0.8320    -0.2960     1.5300 ha         1 SM6       0.141000
     29 H6          -3.1160     0.0900     2.2240 ha         1 SM6       0.137000
     30 H8          -6.6320    -0.3880    -1.2290 hc         1 SM6       0.081700
     31 H9          -4.7310     0.0850    -3.0840 ha         1 SM6       0.151000
     32 HN10         0.2330    -1.2620    -1.6340 hn         1 SM6       0.471800
     33 HN12        -6.9420     1.0000     1.1890 hn         1 SM6       0.412800
     34 H19         -0.6170     2.1860     0.0470 ha         1 SM6       0.158000
     35 H20          0.0630     4.1870     1.2880 h4         1 SM6       0.023100
     36 H22          3.8030     2.6870     2.1160 h4         1 SM6       0.027100
     37 HO23        -5.6410     0.1280     3.1350 ho         1 SM6       0.422000
     38 H25          6.0470    -4.9750    -0.9510 hc         1 SM6       0.047367
     39 H25A         6.3760    -3.2450    -0.9650 hc         1 SM6       0.047367
     40 H25B         5.7890    -4.0280     0.5110 hc         1 SM6       0.047367
     41 H26          3.6240    -4.5670    -0.6400 h1         1 SM6       0.049200
     42 H26A         4.2110    -3.7850    -2.1120 h1         1 SM6       0.049200
     43 H8A         -6.3380     1.3340    -1.3150 hc         1 SM6       0.081700
@<TRIPOS>BOND
     1     1     2 ar  
     2     1     6 ar  
     3     1     7 2   
     4     2     3 ar  
     5     2     9 2   
     6     3     4 ar  
     7     3    27 1   
     8     4     5 ar  
     9     4    10 1   
    10     5     6 ar  
    11     5    28 1   
    12     6    29 1   
    13     7     8 1   
    14     7    12 1   
    15     8     9 1   
    16     8    30 1   
    17     8    43 1   
    18     9    31 1   
    19    10    11 1   
    20    10    32 1   
    21    11    13 1   
    22    11    16 2   
    23    12    23 1   
    24    12    33 1   
    25    13    14 ar  
    26    13    19 ar  
    27    14    15 1   
    28    14    22 ar  
    29    15    16 1   
    30    16    17 1   
    31    17    18 2   
    32    17    24 1   
    33    19    20 ar  
    34    19    34 1   
    35    20    21 ar  
    36    20    35 1   
    37    21    22 ar  
    38    22    36 1   
    39    23    37 1   
    40    24    26 1   
    41    25    26 1   
    42    25    38 1   
    43    25    39 1   
    44    25    40 1   
    45    26    41 1   
    46    26    42 1   
@<TRIPOS>SUBSTRUCTURE
     1 SM6         1 TEMP              0 ****  ****    0 ROOT
