@<TRIPOS>MOLECULE
SM7
   49    54     1     0     0
SMALL
bcc


@<TRIPOS>ATOM
      1 C1          -0.7430     0.1260    -0.1450 cc         1 SM7      -0.218300
      2 C2          -1.2740    -1.1190     0.2730 cc         1 SM7       0.373800
      3 N3          -2.5930    -1.0540     0.3720 nd         1 SM7      -0.508800
      4 N4          -2.9250     0.1810     0.0310 na         1 SM7       0.125400
      5 C5          -1.8560     0.9260    -0.2910 cd         1 SM7      -0.123300
      6 C6           0.6480     0.5390    -0.3400 ca         1 SM7       0.009000
      7 C7          -0.5870    -2.3830     0.5460 ca         1 SM7      -0.079500
      8 C8          -1.0630    -3.2630     1.5160 ca         1 SM7      -0.228800
      9 C9          -0.3950    -4.4580     1.7260 ca         1 SM7       0.393700
     10 N10          0.6900    -4.8250     1.0530 nb         1 SM7      -0.661000
     11 C11          1.1380    -3.9900     0.1230 ca         1 SM7       0.393700
     12 C12          0.5430    -2.7730    -0.1700 ca         1 SM7      -0.228800
     13 C13         -4.3230     0.5920     0.0170 c6         1 SM7       0.062000
     14 C14         -4.7820     0.9680    -1.3890 c6         1 SM7      -0.131400
     15 C15         -6.2470     1.4040    -1.3550 c6         1 SM7       0.150800
     16 N16         -6.5240     2.4700    -0.4080 n7         1 SM7      -0.788200
     17 C17         -6.0600     2.1350     0.9270 c6         1 SM7       0.150800
     18 C18         -4.5840     1.7360     0.9900 c6         1 SM7      -0.131400
     19 C19          1.0070     1.2930    -1.4480 ca         1 SM7      -0.115000
     20 C20          2.3260     1.7280    -1.6490 ca         1 SM7      -0.078000
     21 C21          3.2740     1.3830    -0.7240 ca         1 SM7      -0.017000
     22 C22          2.9220     0.6160     0.4130 ca         1 SM7      -0.099000
     23 C23          1.6320     0.2000     0.6150 ca         1 SM7      -0.071000
     24 C24          4.7130     1.6320    -0.5850 cc         1 SM7       0.276300
     25 C25          5.1610     1.0030     0.6350 cc         1 SM7      -0.356400
     26 C26          4.1240     0.3960     1.2470 cc         1 SM7       0.061800
     27 N27          5.6690     2.2220    -1.2000 nc         1 SM7      -0.289000
     28 N28          6.8440     2.0250    -0.4200 nd         1 SM7      -0.341000
     29 C29          6.5650     1.3290     0.6310 cd         1 SM7       0.393200
     30 H5          -1.9380     1.9640    -0.5740 h4         1 SM7       0.177000
     31 H8          -1.9360    -3.0210     2.1070 ha         1 SM7       0.150500
     32 H9          -0.7550    -5.1490     2.4810 h4         1 SM7       0.019600
     33 H11          2.0180    -4.3040    -0.4280 h4         1 SM7       0.019600
     34 H12          0.9520    -2.1580    -0.9590 ha         1 SM7       0.150500
     35 H13         -4.8760    -0.2900     0.3480 h1         1 SM7       0.093700
     36 H14         -4.1680     1.7890    -1.7730 hc         1 SM7       0.057200
     37 H14A        -4.6540     0.1200    -2.0670 hc         1 SM7       0.057200
     38 H15         -6.5600     1.7230    -2.3500 h1         1 SM7       0.060700
     39 H15A        -6.8720     0.5430    -1.0920 h1         1 SM7       0.060700
     40 HN16        -6.0610     3.3170    -0.7170 hn         1 SM7       0.351800
     41 H17         -6.2420     2.9830     1.5900 h1         1 SM7       0.060700
     42 H17A        -6.6710     1.3080     1.3040 h1         1 SM7       0.060700
     43 H18         -4.3150     1.4380     2.0060 hc         1 SM7       0.057200
     44 H18A        -3.9650     2.6010     0.7290 hc         1 SM7       0.057200
     45 H19          0.2550     1.5420    -2.1850 ha         1 SM7       0.138000
     46 H20          2.5760     2.3140    -2.5240 ha         1 SM7       0.153000
     47 H23          1.3640    -0.3680     1.4970 ha         1 SM7       0.148000
     48 H26          4.1260    -0.1610     2.1740 ha         1 SM7       0.158000
     49 H29          7.3240     1.0690     1.3550 h4         1 SM7       0.046100
@<TRIPOS>BOND
     1     1     2 1   
     2     1     5 2   
     3     1     6 1   
     4     2     3 2   
     5     2     7 1   
     6     3     4 1   
     7     4     5 1   
     8     4    13 1   
     9     5    30 1   
    10     6    19 ar  
    11     6    23 ar  
    12     7     8 ar  
    13     7    12 ar  
    14     8     9 ar  
    15     8    31 1   
    16     9    10 ar  
    17     9    32 1   
    18    10    11 ar  
    19    11    12 ar  
    20    11    33 1   
    21    12    34 1   
    22    13    14 1   
    23    13    18 1   
    24    13    35 1   
    25    14    15 1   
    26    14    36 1   
    27    14    37 1   
    28    15    16 1   
    29    15    38 1   
    30    15    39 1   
    31    16    17 1   
    32    16    40 1   
    33    17    18 1   
    34    17    41 1   
    35    17    42 1   
    36    18    43 1   
    37    18    44 1   
    38    19    20 ar  
    39    19    45 1   
    40    20    21 ar  
    41    20    46 1   
    42    21    22 ar  
    43    21    24 2   
    44    22    23 ar  
    45    22    26 2   
    46    23    47 1   
    47    24    25 1   
    48    24    27 1   
    49    25    26 1   
    50    25    29 2   
    51    26    48 1   
    52    27    28 2   
    53    28    29 1   
    54    29    49 1   
@<TRIPOS>SUBSTRUCTURE
     1 SM7         1 TEMP              0 ****  ****    0 ROOT
