@<TRIPOS>MOLECULE
SM7
   49    54     1     0     0
SMALL
No Charge or Current Charge


@<TRIPOS>ATOM
      1 C1          -0.7680    -0.0600    -0.2120 cc         1 SM7      -0.153000
      2 C2          -1.2990    -1.2340     0.3870 cc         1 SM7       0.308500
      3 N3          -2.6110    -1.1730     0.5350 nd         1 SM7      -0.508800
      4 N4          -2.9310     0.0780     0.0380 na         1 SM7       0.146800
      5 C5          -1.8180     0.7880    -0.4130 cd         1 SM7      -0.156000
      6 C6           0.6030     0.4480    -0.3630 ca         1 SM7       0.009000
      7 C7          -0.5740    -2.4890     0.6710 ca         1 SM7      -0.079500
      8 C8          -1.1170    -3.4620     1.5400 ca         1 SM7      -0.145500
      9 C9          -0.4390    -4.6740     1.7500 ca         1 SM7       0.328400
     10 N10          0.7210    -4.9870     1.1310 nb         1 SM7      -0.661000
     11 C11          1.2280    -4.0830     0.2640 ca         1 SM7       0.328400
     12 C12          0.6150    -2.8470    -0.0020 ca         1 SM7      -0.145500
     13 C13         -4.3260     0.5800     0.0310 c6         1 SM7       0.091300
     14 C14         -4.8090     0.9040    -1.4080 c6         1 SM7      -0.131400
     15 C15         -6.2530     1.4540    -1.3880 c6         1 SM7       0.150800
     16 N16         -6.3520     2.6370    -0.4980 n7         1 SM7      -0.843400
     17 C17         -5.9400     2.3500     0.8980 c6         1 SM7       0.150800
     18 C18         -4.4870     1.8250     0.9430 c6         1 SM7      -0.131400
     19 C19          0.8970     1.4130    -1.3700 ca         1 SM7      -0.097000
     20 C20          2.1980     1.9360    -1.5300 ca         1 SM7      -0.060000
     21 C21          3.1880     1.4840    -0.6550 ca         1 SM7      -0.017000
     22 C22          2.9170     0.5510     0.3560 ca         1 SM7      -0.099000
     23 C23          1.6290     0.0280     0.5220 ca         1 SM7      -0.053000
     24 C24          4.5910     1.8020    -0.5300 cc         1 SM7       0.211000
     25 C25          5.1340     1.1090     0.4930 cc         1 SM7      -0.225800
     26 C26          4.1500     0.2870     1.1190 cc         1 SM7       0.011800
     27 N27          5.5080     2.5930    -1.1340 nc         1 SM7      -0.289000
     28 N28          6.6440     2.3670    -0.4550 nd         1 SM7      -0.341000
     29 C29          6.4460     1.4260     0.5910 cd         1 SM7       0.327900
     30 H5          -1.8680     1.8080    -0.7730 h4         1 SM7       0.159000
     31 H8          -2.0500    -3.2820     2.0670 ha         1 SM7       0.132500
     32 H9          -0.8410    -5.4220     2.4340 h4         1 SM7       0.019600
     33 H11          2.1480    -4.3650    -0.2480 h4         1 SM7       0.019600
     34 H12          1.0560    -2.2000    -0.7530 ha         1 SM7       0.132500
     35 H13         -4.9670    -0.2190     0.4320 h1         1 SM7       0.093700
     36 H14         -4.1430     1.6410    -1.8780 hc         1 SM7       0.057200
     37 H14A        -4.7660     0.0000    -2.0300 hc         1 SM7       0.057200
     38 H15         -6.5580     1.7290    -2.4090 h1         1 SM7       0.060700
     39 H15A        -6.9410     0.6690    -1.0380 h1         1 SM7       0.060700
     40 HN16        -5.7420     3.3760    -0.8710 hn         1 SM7       0.407000
     41 H17         -6.0230     3.2630     1.5070 h1         1 SM7       0.060700
     42 H17A        -6.6170     1.6000     1.3370 h1         1 SM7       0.060700
     43 H18         -4.2190     1.5700     1.9770 hc         1 SM7       0.057200
     44 H18A        -3.8000     2.6220     0.6280 hc         1 SM7       0.057200
     45 H19          0.1160     1.7450    -2.0490 ha         1 SM7       0.120000
     46 H20          2.4240     2.6640    -2.3060 ha         1 SM7       0.135000
     47 H23          1.4250    -0.6660     1.3320 ha         1 SM7       0.130000
     48 H26          4.3090    -0.3750     1.9670 ha         1 SM7       0.208000
     49 H29          7.2160     1.0890     1.2740 h4         1 SM7       0.046100
@<TRIPOS>BOND
     1     1     2 1   
     2     1     5 2   
     3     1     6 1   
     4     2     3 2   
     5     2     7 1   
     6     3     4 1   
     7     4     5 1   
     8     4    13 1   
     9     5    30 1   
    10     6    19 ar  
    11     6    23 ar  
    12     7     8 ar  
    13     7    12 ar  
    14     8     9 ar  
    15     8    31 1   
    16     9    10 ar  
    17     9    32 1   
    18    10    11 ar  
    19    11    12 ar  
    20    11    33 1   
    21    12    34 1   
    22    13    14 1   
    23    13    18 1   
    24    13    35 1   
    25    14    15 1   
    26    14    36 1   
    27    14    37 1   
    28    15    16 1   
    29    15    38 1   
    30    15    39 1   
    31    16    17 1   
    32    16    40 1   
    33    17    18 1   
    34    17    41 1   
    35    17    42 1   
    36    18    43 1   
    37    18    44 1   
    38    19    20 ar  
    39    19    45 1   
    40    20    21 ar  
    41    20    46 1   
    42    21    22 ar  
    43    21    24 2   
    44    22    23 ar  
    45    22    26 2   
    46    23    47 1   
    47    24    25 1   
    48    24    27 1   
    49    25    26 1   
    50    25    29 2   
    51    26    48 1   
    52    27    28 2   
    53    28    29 1   
    54    29    49 1   
@<TRIPOS>SUBSTRUCTURE
     1 SM7         1 TEMP              0 ****  ****    0 ROOT
