@<TRIPOS>MOLECULE
SM9
   84    88     1     0     0
SMALL
bcc


@<TRIPOS>ATOM
      1 C1          -0.3740     2.2740    -1.1200 c3         1 SM9       0.132800
      2 C2          -0.7180     1.0840    -0.2280 c3         1 SM9       0.141100
      3 C3          -2.2240     1.0740     0.0250 c3         1 SM9       0.176800
      4 O4          -0.2660    -0.1330    -0.7580 oh         1 SM9      -0.574800
      5 N5          -2.6240     0.0130     0.9390 n3         1 SM9      -0.754500
      6 C6          -2.4640     0.2780     2.3640 c3         1 SM9       0.212800
      7 C7          -3.4730     1.2540     2.9340 c3         1 SM9       0.106400
      8 C8          -3.0210    -1.8740    -0.9160 ca         1 SM9      -0.261500
      9 C9          -1.9820    -2.7640    -0.5690 ca         1 SM9       0.029700
     10 C10         -1.3780    -3.4910    -1.5890 ca         1 SM9      -0.169000
     11 C11         -1.7590    -3.3360    -2.9090 ca         1 SM9      -0.071000
     12 C12         -2.7620    -2.4430    -3.2290 ca         1 SM9      -0.169000
     13 C13         -3.4220    -1.6950    -2.2530 ca         1 SM9       0.029700
     14 C14         -4.5010    -0.7710    -2.7570 c3         1 SM9      -0.068800
     15 C15         -1.4520    -2.9760     0.8210 c3         1 SM9      -0.068800
     16 C16          3.2270     3.1340    -0.3840 c5         1 SM9      -0.056000
     17 C17          3.5110     3.9450    -1.6430 c6         1 SM9      -0.067400
     18 C18          2.7670     3.3710    -2.8410 c6         1 SM9      -0.075400
     19 C19          1.2830     3.2550    -2.5370 c6         1 SM9       0.165800
     20 N20          1.0460     2.4540    -1.3460 n3         1 SM9      -0.711600
     21 C21          1.7110     3.0280    -0.1920 c6         1 SM9       0.172800
     22 C22          3.8750     3.7410     0.8790 c5         1 SM9      -0.086400
     23 C23          4.5900     2.5900     1.5970 c5         1 SM9       0.205800
     24 N24          4.0740     1.3930     0.9470 nh         1 SM9      -0.767300
     25 C25          3.8450     1.7370    -0.4530 c5         1 SM9       0.216800
     26 C26          4.4820     0.1730     1.3720 ca         1 SM9       0.722200
     27 C27          3.8800    -1.0510     0.9090 ca         1 SM9      -0.289600
     28 C28          4.5240    -2.2420     1.3140 ca         1 SM9       0.430600
     29 N29          5.5840    -2.2330     2.1680 nb         1 SM9      -0.727000
     30 C30          5.9270    -1.0670     2.6300 ca         1 SM9       0.683900
     31 N31          5.4400     0.1320     2.2790 nb         1 SM9      -0.812000
     32 C32          2.6770    -1.1360     0.1840 ca         1 SM9      -0.080000
     33 C33          2.1860    -2.3560    -0.2070 ca         1 SM9      -0.146000
     34 C34          2.8800    -3.5340     0.1130 ca         1 SM9      -0.105000
     35 C35          4.0230    -3.4820     0.8670 ca         1 SM9      -0.187300
     36 O36         -4.7430     0.6660     2.8920 os         1 SM9      -0.414600
     37 C37         -7.1090     0.8230     2.7730 c3         1 SM9      -0.095100
     38 C38         -5.8110     1.5840     2.9150 c3         1 SM9       0.146400
     39 S39         -3.8280    -0.9960     0.4270 sy         1 SM9       1.317200
     40 O40         -4.1050    -1.9450     1.4940 o          1 SM9      -0.611800
     41 O41         -4.9550    -0.2490    -0.1100 o          1 SM9      -0.611800
     42 H1          -0.8550     2.1160    -2.0920 h1         1 SM9       0.033700
     43 H1A         -0.8380     3.1830    -0.7000 h1         1 SM9       0.033700
     44 H2          -0.2080     1.1870     0.7350 h1         1 SM9       0.080700
     45 H3          -2.5370     2.0470     0.4140 h1         1 SM9       0.050200
     46 H3A         -2.7450     0.9660    -0.9300 h1         1 SM9       0.050200
     47 HO4         -0.6690    -0.2730    -1.6220 ho         1 SM9       0.403000
     48 H6          -2.4880    -0.6610     2.9170 h1         1 SM9       0.075200
     49 H6A         -1.4600     0.6840     2.5040 h1         1 SM9       0.075200
     50 H7          -3.1770     1.5110     3.9620 h1         1 SM9       0.029700
     51 H7A         -3.4540     2.1920     2.3610 h1         1 SM9       0.029700
     52 H10         -0.5880    -4.1890    -1.3400 ha         1 SM9       0.132000
     53 H11         -1.2720    -3.9090    -3.6870 ha         1 SM9       0.134000
     54 H12         -3.0530    -2.3170    -4.2640 ha         1 SM9       0.132000
     55 H14         -5.4870    -1.0490    -2.3920 hc         1 SM9       0.060533
     56 H14A        -4.3340     0.2690    -2.4820 hc         1 SM9       0.060533
     57 H14B        -4.5250    -0.8200    -3.8440 hc         1 SM9       0.060533
     58 H15         -2.1900    -3.4220     1.4820 hc         1 SM9       0.060533
     59 H15A        -0.5920    -3.6420     0.7850 hc         1 SM9       0.060533
     60 H15B        -1.1220    -2.0390     1.2660 hc         1 SM9       0.060533
     61 H17          3.1870     4.9790    -1.4790 hc         1 SM9       0.045700
     62 H17A         4.5880     3.9810    -1.8300 hc         1 SM9       0.045700
     63 H18          2.9050     4.0080    -3.7160 hc         1 SM9       0.050200
     64 H18A         3.1660     2.3860    -3.1000 hc         1 SM9       0.050200
     65 H19          0.8620     4.2710    -2.4250 h1         1 SM9       0.030700
     66 H19A         0.7650     2.7900    -3.3780 h1         1 SM9       0.030700
     67 H21          1.5050     2.4130     0.6880 h1         1 SM9       0.037700
     68 H21A         1.3190     4.0380     0.0320 h1         1 SM9       0.037700
     69 H22          4.5870     4.5260     0.6200 hc         1 SM9       0.050700
     70 H22A         3.1210     4.2030     1.5200 hc         1 SM9       0.050700
     71 H23          5.6760     2.6660     1.4720 h1         1 SM9       0.058200
     72 H23A         4.3880     2.5590     2.6660 h1         1 SM9       0.058200
     73 H25          3.2110     1.0300    -0.9760 h1         1 SM9       0.061200
     74 H25A         4.8070     1.7730    -0.9840 h1         1 SM9       0.061200
     75 H30          6.7220    -1.0440     3.3680 h5         1 SM9       0.041100
     76 H32          2.0990    -0.2530    -0.0420 ha         1 SM9       0.159000
     77 H33          1.2490    -2.4020    -0.7450 ha         1 SM9       0.142000
     78 H34          2.4910    -4.4920    -0.2110 ha         1 SM9       0.129000
     79 H35          4.5430    -4.3850     1.1600 ha         1 SM9       0.149000
     80 H37         -7.9500     1.5160     2.7740 hc         1 SM9       0.048700
     81 H37A        -7.1270     0.2650     1.8370 hc         1 SM9       0.048700
     82 H37B        -7.2520     0.1210     3.5950 hc         1 SM9       0.048700
     83 H38         -5.8090     2.1620     3.8500 h1         1 SM9       0.017200
     84 H38A        -5.7070     2.3070     2.0950 h1         1 SM9       0.017200
@<TRIPOS>BOND
     1     1     2 1   
     2     1    20 1   
     3     1    42 1   
     4     1    43 1   
     5     2     3 1   
     6     2     4 1   
     7     2    44 1   
     8     3     5 1   
     9     3    45 1   
    10     3    46 1   
    11     4    47 1   
    12     5     6 1   
    13     5    39 1   
    14     6     7 1   
    15     6    48 1   
    16     6    49 1   
    17     7    36 1   
    18     7    50 1   
    19     7    51 1   
    20     8     9 ar  
    21     8    13 ar  
    22     8    39 1   
    23     9    10 ar  
    24     9    15 1   
    25    10    11 ar  
    26    10    52 1   
    27    11    12 ar  
    28    11    53 1   
    29    12    13 ar  
    30    12    54 1   
    31    13    14 1   
    32    14    55 1   
    33    14    56 1   
    34    14    57 1   
    35    15    58 1   
    36    15    59 1   
    37    15    60 1   
    38    16    17 1   
    39    16    21 1   
    40    16    22 1   
    41    16    25 1   
    42    17    18 1   
    43    17    61 1   
    44    17    62 1   
    45    18    19 1   
    46    18    63 1   
    47    18    64 1   
    48    19    20 1   
    49    19    65 1   
    50    19    66 1   
    51    20    21 1   
    52    21    67 1   
    53    21    68 1   
    54    22    23 1   
    55    22    69 1   
    56    22    70 1   
    57    23    24 1   
    58    23    71 1   
    59    23    72 1   
    60    24    25 1   
    61    24    26 1   
    62    25    73 1   
    63    25    74 1   
    64    26    27 ar  
    65    26    31 ar  
    66    27    28 ar  
    67    27    32 ar  
    68    28    29 ar  
    69    28    35 ar  
    70    29    30 ar  
    71    30    31 ar  
    72    30    75 1   
    73    32    33 ar  
    74    32    76 1   
    75    33    34 ar  
    76    33    77 1   
    77    34    35 ar  
    78    34    78 1   
    79    35    79 1   
    80    36    38 1   
    81    37    38 1   
    82    37    80 1   
    83    37    81 1   
    84    37    82 1   
    85    38    83 1   
    86    38    84 1   
    87    39    40 2   
    88    39    41 2   
@<TRIPOS>SUBSTRUCTURE
     1 SM9         1 TEMP              0 ****  ****    0 ROOT
