@<TRIPOS>MOLECULE
SM9
   84    88     1     0     0
SMALL
No Charge or Current Charge


@<TRIPOS>ATOM
      1 C1           0.0310     1.5290    -1.8260 c3         1 SM9       0.132800
      2 C2          -0.4010     0.5730    -0.6730 c3         1 SM9       0.164300
      3 C3          -1.9400     0.4230    -0.5730 c3         1 SM9       0.176800
      4 O4           0.1380    -0.7460    -0.8630 oh         1 SM9      -0.637000
      5 N5          -2.3780    -0.7350     0.2600 n3         1 SM9      -0.754500
      6 C6          -1.9560    -0.6920     1.6970 c3         1 SM9       0.212800
      7 C7          -2.5240     0.4580     2.5770 c3         1 SM9       0.129600
      8 C8          -3.9550    -1.7260    -1.7600 ca         1 SM9      -0.261500
      9 C9          -3.2420    -2.9150    -2.1180 ca         1 SM9       0.029700
     10 C10         -3.1980    -3.3290    -3.4640 ca         1 SM9      -0.151000
     11 C11         -3.8310    -2.5930    -4.4660 ca         1 SM9      -0.053000
     12 C12         -4.5180    -1.4250    -4.1340 ca         1 SM9      -0.151000
     13 C13         -4.5910    -0.9740    -2.8010 ca         1 SM9       0.029700
     14 C14         -5.3670     0.3240    -2.5760 c3         1 SM9      -0.068800
     15 C15         -2.4990    -3.8030    -1.1160 c3         1 SM9      -0.068800
     16 C16          3.3190     3.2040    -0.6030 c5         1 SM9      -0.056000
     17 C17          3.7600     3.7830    -1.9800 c6         1 SM9      -0.067400
     18 C18          3.3850     2.8400    -3.1450 c6         1 SM9      -0.075400
     19 C19          1.8740     2.5300    -3.1260 c6         1 SM9       0.165800
     20 N20          1.4570     1.9620    -1.8180 n3         1 SM9      -0.711600
     21 C21          1.7850     2.8960    -0.6940 c6         1 SM9       0.172800
     22 C22          3.6810     4.1750     0.5650 c5         1 SM9      -0.086400
     23 C23          3.5230     3.2890     1.8280 c5         1 SM9       0.205800
     24 N24          3.9660     1.9660     1.3230 nh         1 SM9      -0.767300
     25 C25          4.1440     1.9560    -0.1550 c5         1 SM9       0.216800
     26 C26          4.5050     0.9660     2.1560 ca         1 SM9       0.393900
     27 C27          4.0160    -0.3640     2.1880 ca         1 SM9      -0.159000
     28 C28          4.6650    -1.2790     3.0550 ca         1 SM9       0.037000
     29 N29          5.7020    -0.8780     3.8200 nb         1 SM9      -0.201000
     30 C30          6.0800     0.4120     3.7250 ca         1 SM9       0.157900
     31 N31          5.5330     1.3540     2.9340 nb         1 SM9      -0.286000
     32 C32          2.9130    -0.7880     1.4140 ca         1 SM9      -0.062000
     33 C33          2.4700    -2.1180     1.4880 ca         1 SM9      -0.128000
     34 C34          3.1190    -3.0300     2.3340 ca         1 SM9      -0.087000
     35 C35          4.2090    -2.6090     3.1150 ca         1 SM9      -0.104000
     36 O36         -3.8080     0.0720     3.1040 os         1 SM9      -0.461000
     37 C37         -5.8090     0.5130     4.3480 c3         1 SM9      -0.095100
     38 C38         -4.4580     1.0810     3.8900 c3         1 SM9       0.169600
     39 S39         -4.0030    -1.1930    -0.0020 sy         1 SM9       1.175600
     40 O40         -4.2210    -2.3920     0.8160 o          1 SM9      -0.541000
     41 O41         -4.8170     0.0100     0.1950 o          1 SM9      -0.541000
     42 H1          -0.1940     1.0180    -2.7730 h1         1 SM9       0.033700
     43 H1A         -0.6120     2.4200    -1.7960 h1         1 SM9       0.033700
     44 H2          -0.0540     0.9850     0.2820 h1         1 SM9       0.080700
     45 H3          -2.3690     1.3610    -0.1980 h1         1 SM9       0.050200
     46 H3A         -2.3100     0.3030    -1.6000 h1         1 SM9       0.050200
     47 HO4         -0.5890    -1.3310    -0.5470 ho         1 SM9       0.442000
     48 H6          -2.1890    -1.6440     2.1910 h1         1 SM9       0.075200
     49 H6A         -0.8620    -0.6100     1.7470 h1         1 SM9       0.075200
     50 H7          -1.8270     0.6370     3.4060 h1         1 SM9       0.029700
     51 H7A         -2.5950     1.3850     1.9950 h1         1 SM9       0.029700
     52 H10         -2.6640    -4.2350    -3.7400 ha         1 SM9       0.114000
     53 H11         -3.7860    -2.9260    -5.5010 ha         1 SM9       0.116000
     54 H12         -5.0010    -0.8620    -4.9300 ha         1 SM9       0.114000
     55 H14         -6.2400     0.1620    -1.9350 hc         1 SM9       0.060533
     56 H14A        -4.7330     1.0980    -2.1290 hc         1 SM9       0.060533
     57 H14B        -5.7470     0.7420    -3.5150 hc         1 SM9       0.060533
     58 H15         -3.2000    -4.3880    -0.5090 hc         1 SM9       0.060533
     59 H15A        -1.8460    -4.5240    -1.6210 hc         1 SM9       0.060533
     60 H15B        -1.8530    -3.2290    -0.4450 hc         1 SM9       0.060533
     61 H17          3.2850     4.7620    -2.1370 hc         1 SM9       0.045700
     62 H17A         4.8440     3.9640    -1.9870 hc         1 SM9       0.045700
     63 H18          3.6570     3.3020    -4.1040 hc         1 SM9       0.050200
     64 H18A         3.9570     1.9050    -3.0740 hc         1 SM9       0.050200
     65 H19          1.3120     3.4520    -3.3370 h1         1 SM9       0.030700
     66 H19A         1.6520     1.8220    -3.9390 h1         1 SM9       0.030700
     67 H21          1.4500     2.4710     0.2610 h1         1 SM9       0.037700
     68 H21A         1.2360     3.8410    -0.8230 h1         1 SM9       0.037700
     69 H22          4.7140     4.5340     0.4780 hc         1 SM9       0.050700
     70 H22A         3.0370     5.0610     0.6000 hc         1 SM9       0.050700
     71 H23          4.1410     3.6630     2.6560 h1         1 SM9       0.058200
     72 H23A         2.4790     3.2520     2.1700 h1         1 SM9       0.058200
     73 H25          3.7780     1.0340    -0.6260 h1         1 SM9       0.061200
     74 H25A         5.2060     2.0690    -0.4150 h1         1 SM9       0.061200
     75 H30          6.9140     0.7230     4.3510 h5         1 SM9       0.041100
     76 H32          2.3890    -0.0930     0.7620 ha         1 SM9       0.141000
     77 H33          1.6220    -2.4420     0.8890 ha         1 SM9       0.124000
     78 H34          2.7750    -4.0610     2.3910 ha         1 SM9       0.111000
     79 H35          4.7010    -3.3200     3.7740 ha         1 SM9       0.131000
     80 H37         -6.3470     1.2530     4.9520 hc         1 SM9       0.048700
     81 H37A        -6.4320     0.2560     3.4830 hc         1 SM9       0.048700
     82 H37B        -5.6630    -0.3880     4.9560 hc         1 SM9       0.048700
     83 H38         -3.8520     1.3430     4.7670 h1         1 SM9       0.017200
     84 H38A        -4.6250     1.9900     3.2960 h1         1 SM9       0.017200
@<TRIPOS>BOND
     1     1     2 1   
     2     1    20 1   
     3     1    42 1   
     4     1    43 1   
     5     2     3 1   
     6     2     4 1   
     7     2    44 1   
     8     3     5 1   
     9     3    45 1   
    10     3    46 1   
    11     4    47 1   
    12     5     6 1   
    13     5    39 1   
    14     6     7 1   
    15     6    48 1   
    16     6    49 1   
    17     7    36 1   
    18     7    50 1   
    19     7    51 1   
    20     8     9 ar  
    21     8    13 ar  
    22     8    39 1   
    23     9    10 ar  
    24     9    15 1   
    25    10    11 ar  
    26    10    52 1   
    27    11    12 ar  
    28    11    53 1   
    29    12    13 ar  
    30    12    54 1   
    31    13    14 1   
    32    14    55 1   
    33    14    56 1   
    34    14    57 1   
    35    15    58 1   
    36    15    59 1   
    37    15    60 1   
    38    16    17 1   
    39    16    21 1   
    40    16    22 1   
    41    16    25 1   
    42    17    18 1   
    43    17    61 1   
    44    17    62 1   
    45    18    19 1   
    46    18    63 1   
    47    18    64 1   
    48    19    20 1   
    49    19    65 1   
    50    19    66 1   
    51    20    21 1   
    52    21    67 1   
    53    21    68 1   
    54    22    23 1   
    55    22    69 1   
    56    22    70 1   
    57    23    24 1   
    58    23    71 1   
    59    23    72 1   
    60    24    25 1   
    61    24    26 1   
    62    25    73 1   
    63    25    74 1   
    64    26    27 ar  
    65    26    31 ar  
    66    27    28 ar  
    67    27    32 ar  
    68    28    29 ar  
    69    28    35 ar  
    70    29    30 ar  
    71    30    31 ar  
    72    30    75 1   
    73    32    33 ar  
    74    32    76 1   
    75    33    34 ar  
    76    33    77 1   
    77    34    35 ar  
    78    34    78 1   
    79    35    79 1   
    80    36    38 1   
    81    37    38 1   
    82    37    80 1   
    83    37    81 1   
    84    37    82 1   
    85    38    83 1   
    86    38    84 1   
    87    39    40 2   
    88    39    41 2   
@<TRIPOS>SUBSTRUCTURE
     1 SM9         1 TEMP              0 ****  ****    0 ROOT
