@<TRIPOS>MOLECULE
SMA
   79    80     1     0     0
SMALL
abcg2


@<TRIPOS>ATOM
      1 C2          -2.4460    -0.0530     1.0300 cc         1 SMA       0.128900
      2 C3          -3.1730    -0.9820     1.6850 cd         1 SMA      -0.275400
      3 C3M         -2.5570    -2.0420     2.5440 c3         1 SMA      -0.026900
      4 C4          -4.6300    -0.9980     1.5690 c          1 SMA       0.600900
      5 C4A         -5.2150     0.0310     0.7070 ca         1 SMA      -0.261600
      6 C5          -6.6000     0.1800     0.4650 ca         1 SMA       0.232100
      7 C5M         -8.8210    -0.5520     0.8600 c3         1 SMA       0.144900
      8 C6          -7.0550     1.1900    -0.3700 ca         1 SMA      -0.299000
      9 C7          -6.1570     2.0670    -0.9790 ca         1 SMA       0.141100
     10 C7M         -7.8860     3.2910    -2.0700 c3         1 SMA       0.157900
     11 C8          -4.7880     1.9520    -0.7620 ca         1 SMA       0.034100
     12 C8A         -4.3510     0.9330     0.0750 ca         1 SMA       0.185100
     13 C9          -0.9580     0.0700     1.0120 c3         1 SMA      -0.033200
     14 C10         -0.3370    -0.8100    -0.0800 c3         1 SMA      -0.072400
     15 C11          1.1920    -0.7200    -0.1280 c3         1 SMA      -0.072700
     16 C12          1.7620    -1.8510    -1.0000 c3         1 SMA       0.181300
     17 C13          3.2810    -1.7750    -1.2460 c3         1 SMA      -0.055700
     18 C14          4.1320    -1.6450     0.0270 c3         1 SMA       0.212500
     19 C15          5.5140    -1.1560    -0.2970 c2         1 SMA      -0.245200
     20 C16          5.9930     0.0250     0.1100 ce         1 SMA      -0.177000
     21 C17          7.3040     0.5350    -0.2290 ce         1 SMA      -0.184000
     22 C18          7.7670     1.7190     0.2090 cf         1 SMA      -0.163000
     23 C19          9.0700     2.2930    -0.0930 cf         1 SMA      -0.089200
     24 C20          9.3870     3.4890     0.4330 c2         1 SMA      -0.200200
     25 C21         10.6730     4.2290     0.2340 c3         1 SMA      -0.057900
     26 C22          1.6400     0.6520    -0.6280 c3         1 SMA      -0.093100
     27 C24          3.7390    -2.9200    -2.1460 c3         1 SMA      -0.081100
     28 C26         10.0040     1.5200    -0.9760 c3         1 SMA      -0.053900
     29 O1          -3.0180     0.8770     0.2450 os         1 SMA      -0.196200
     30 O4          -5.2880    -1.8380     2.1710 o          1 SMA      -0.531100
     31 O5          -7.4290    -0.6790     1.0700 os         1 SMA      -0.299100
     32 O7          -6.5130     3.0670    -1.8000 os         1 SMA      -0.360100
     33 O8          -3.8740     2.7740    -1.3230 oh         1 SMA      -0.517100
     34 O12          1.4050    -3.0990    -0.4390 os         1 SMA      -0.444000
     35 O14          4.1600    -2.8920     0.6850 os         1 SMA      -0.433000
     36 H1          -2.9060    -1.9640     3.5750 hc         1 SMA       0.045700
     37 H2          -2.8310    -3.0360     2.1890 hc         1 SMA       0.045700
     38 H3          -1.4720    -1.9890     2.5600 hc         1 SMA       0.045700
     39 H4          -9.2900    -1.3340     1.4520 h1         1 SMA       0.043367
     40 H5          -9.2000     0.4170     1.1940 h1         1 SMA       0.043367
     41 H6          -9.0920    -0.6970    -0.1900 h1         1 SMA       0.043367
     42 H7          -8.1120     1.3060    -0.5580 ha         1 SMA       0.126000
     43 H8          -8.3460     2.4300    -2.5600 h1         1 SMA       0.045700
     44 H9          -8.4410     3.5270    -1.1600 h1         1 SMA       0.045700
     45 H10         -7.9290     4.1440    -2.7410 h1         1 SMA       0.045700
     46 H11         -0.6980     1.1190     0.8620 hc         1 SMA       0.067700
     47 H12         -0.5490    -0.2160     1.9810 hc         1 SMA       0.067700
     48 H13         -0.6390    -1.8410     0.1130 hc         1 SMA       0.053700
     49 H14         -0.7510    -0.5370    -1.0570 hc         1 SMA       0.053700
     50 H15          1.5590    -0.8600     0.8970 hc         1 SMA       0.060700
     51 H16          1.3010    -1.7450    -1.9960 h1         1 SMA       0.032700
     52 H17          3.4410    -0.8480    -1.8060 hc         1 SMA       0.051700
     53 H18          3.6670    -0.8960     0.6880 h1         1 SMA       0.032700
     54 H19          6.1400    -1.8020    -0.9100 ha         1 SMA       0.180000
     55 H21          5.3690     0.6580     0.7380 ha         1 SMA       0.166000
     56 H22          7.9180    -0.0900    -0.8720 ha         1 SMA       0.174000
     57 H23          7.1230     2.3160     0.8500 ha         1 SMA       0.168000
     58 H25          8.6470     3.9690     1.0670 ha         1 SMA       0.168000
     59 H26         10.6420     5.2000     0.7250 hc         1 SMA       0.040700
     60 H27         11.5260     3.6840     0.6460 hc         1 SMA       0.040700
     61 H28         10.8900     4.4020    -0.8220 hc         1 SMA       0.040700
     62 H29          1.3850     0.7840    -1.6820 hc         1 SMA       0.036033
     63 H30          1.1570     1.4560    -0.0730 hc         1 SMA       0.036033
     64 H31          2.7140     0.8030    -0.5260 hc         1 SMA       0.036033
     65 H32          0.4200    -4.8450    -0.7070 h1         1 SMA       0.026700
     66 H33         -0.3430    -3.4710    -1.5180 h1         1 SMA       0.026700
     67 H34          1.1240    -4.1970    -2.1930 h1         1 SMA       0.026700
     68 H35          3.6210    -3.8920    -1.6690 hc         1 SMA       0.038033
     69 H36          3.1580    -2.9280    -3.0700 hc         1 SMA       0.038033
     70 H37          4.7870    -2.8140    -2.4290 hc         1 SMA       0.038033
     71 H38          5.7600    -2.5420     1.9820 h1         1 SMA       0.027033
     72 H39          4.1630    -2.1240     2.6180 h1         1 SMA       0.027033
     73 H40          4.6190    -3.8250     2.4200 h1         1 SMA       0.027033
     74 H41          9.5470     1.3070    -1.9440 hc         1 SMA       0.040700
     75 H42         10.9340     2.0530    -1.1600 hc         1 SMA       0.040700
     76 H43         10.2580     0.5570    -0.5280 hc         1 SMA       0.040700
     77 H44         -4.3220     3.4460    -1.8490 ho         1 SMA       0.475000
     78 C23          0.6200    -3.9270    -1.2590 c3         1 SMA       0.147900
     79 C25          4.7040    -2.8320     1.9790 c3         1 SMA       0.144900
@<TRIPOS>BOND
     1     1     2 2   
     2     1    13 1   
     3     1    29 1   
     4     2     3 1   
     5     2     4 1   
     6     3    36 1   
     7     3    37 1   
     8     3    38 1   
     9     4     5 1   
    10     4    30 2   
    11     5     6 ar  
    12     5    12 ar  
    13     6     8 ar  
    14     6    31 1   
    15     7    31 1   
    16     7    39 1   
    17     7    40 1   
    18     7    41 1   
    19     8     9 ar  
    20     8    42 1   
    21     9    11 ar  
    22     9    32 1   
    23    10    32 1   
    24    10    43 1   
    25    10    44 1   
    26    10    45 1   
    27    11    12 ar  
    28    11    33 1   
    29    12    29 1   
    30    13    14 1   
    31    13    46 1   
    32    13    47 1   
    33    14    15 1   
    34    14    48 1   
    35    14    49 1   
    36    15    16 1   
    37    15    26 1   
    38    15    50 1   
    39    16    17 1   
    40    16    34 1   
    41    16    51 1   
    42    17    18 1   
    43    17    27 1   
    44    17    52 1   
    45    18    19 1   
    46    18    35 1   
    47    18    53 1   
    48    19    20 2   
    49    19    54 1   
    50    20    21 1   
    51    20    55 1   
    52    21    22 2   
    53    21    56 1   
    54    22    23 1   
    55    22    57 1   
    56    23    24 2   
    57    23    28 1   
    58    24    25 1   
    59    24    58 1   
    60    25    59 1   
    61    25    60 1   
    62    25    61 1   
    63    26    62 1   
    64    26    63 1   
    65    26    64 1   
    66    27    68 1   
    67    27    69 1   
    68    27    70 1   
    69    28    74 1   
    70    28    75 1   
    71    28    76 1   
    72    33    77 1   
    73    34    78 1   
    74    35    79 1   
    75    65    78 1   
    76    66    78 1   
    77    67    78 1   
    78    71    79 1   
    79    72    79 1   
    80    73    79 1   
@<TRIPOS>SUBSTRUCTURE
     1 SMA         1 TEMP              0 ****  ****    0 ROOT
