@<TRIPOS>MOLECULE
SMA
   79    80     1     0     0
SMALL
No Charge or Current Charge


@<TRIPOS>ATOM
      1 C2          -2.5640     0.4460     1.2630 cc         1 SMA       0.128900
      2 C3          -3.1580    -0.5570     2.0160 cd         1 SMA      -0.275400
      3 C3M         -2.3840    -1.5790     2.8340 c3         1 SMA      -0.026900
      4 C4          -4.6250    -0.7280     2.0220 c          1 SMA       0.600900
      5 C4A         -5.3460     0.0720     0.9990 ca         1 SMA      -0.261600
      6 C5          -6.6710    -0.2080     0.5890 ca         1 SMA       0.232100
      7 C5M         -8.6860    -1.6410     0.7770 c3         1 SMA       0.144900
      8 C6          -7.2850     0.6030    -0.3890 ca         1 SMA      -0.299000
      9 C7          -6.5880     1.6870    -0.9530 ca         1 SMA       0.141100
     10 C7M         -8.4970     2.3330    -2.3920 c3         1 SMA       0.157900
     11 C8          -5.2690     1.9560    -0.5490 ca         1 SMA       0.034100
     12 C8A         -4.6410     1.1340     0.4130 ca         1 SMA       0.185100
     13 C9          -1.0860     0.7000     1.0970 c3         1 SMA      -0.033200
     14 C10         -0.4640    -0.1600    -0.0300 c3         1 SMA      -0.072400
     15 C11          1.0950    -0.1310    -0.1130 c3         1 SMA      -0.072700
     16 C12          1.6260    -1.1630    -1.1690 c3         1 SMA       0.181300
     17 C13          3.1780    -1.2040    -1.3940 c3         1 SMA      -0.055700
     18 C14          4.0450    -1.4000    -0.0510 c3         1 SMA       0.212500
     19 C15          5.5510    -1.1190    -0.2000 c2         1 SMA      -0.245200
     20 C16          6.1550     0.0660     0.0290 ce         1 SMA      -0.177000
     21 C17          7.5960     0.2780    -0.1340 ce         1 SMA      -0.184000
     22 C18          8.2250     1.4670     0.0900 cf         1 SMA      -0.163000
     23 C19          9.6560     1.7500    -0.0520 cf         1 SMA      -0.089200
     24 C20         10.1310     2.9930     0.2110 c2         1 SMA      -0.200200
     25 C21         11.5680     3.4690     0.1200 c3         1 SMA      -0.057900
     26 C22          1.6200     1.3090    -0.3770 c3         1 SMA      -0.093100
     27 C24          3.6020    -2.2030    -2.5010 c3         1 SMA      -0.081100
     28 C26         10.5620     0.6070    -0.5000 c3         1 SMA      -0.053900
     29 O1          -3.3620     1.4820     0.8140 os         1 SMA      -0.196200
     30 O4          -5.1880    -1.4950     2.7940 o          1 SMA      -0.531100
     31 O5          -7.3400    -1.2850     1.1380 os         1 SMA      -0.299100
     32 O7          -7.1530     2.5160    -1.9070 os         1 SMA      -0.360100
     33 O8          -4.6070     3.0230    -1.1070 oh         1 SMA      -0.517100
     34 O12          1.1770    -2.4730    -0.7570 os         1 SMA      -0.444000
     35 O14          3.9210    -2.7490     0.5010 os         1 SMA      -0.433000
     36 H1          -2.4400    -1.3460     3.9040 hc         1 SMA       0.045700
     37 H2          -2.7810    -2.5920     2.6920 hc         1 SMA       0.045700
     38 H3          -1.3240    -1.6220     2.5620 hc         1 SMA       0.045700
     39 H4          -9.0080    -2.5250     1.3410 h1         1 SMA       0.043367
     40 H5          -9.3800    -0.8220     1.0030 h1         1 SMA       0.043367
     41 H6          -8.7530    -1.8790    -0.2930 h1         1 SMA       0.043367
     42 H7          -8.2990     0.3950    -0.7080 ha         1 SMA       0.126000
     43 H8          -8.6100     1.3500    -2.8660 h1         1 SMA       0.045700
     44 H9          -9.2230     2.4170    -1.5740 h1         1 SMA       0.045700
     45 H10         -8.7380     3.0990    -3.1390 h1         1 SMA       0.045700
     46 H11         -0.9280     1.7610     0.8760 hc         1 SMA       0.067700
     47 H12         -0.5640     0.5080     2.0420 hc         1 SMA       0.067700
     48 H13         -0.7970    -1.1930     0.1260 hc         1 SMA       0.053700
     49 H14         -0.8860     0.1550    -0.9930 hc         1 SMA       0.053700
     50 H15          1.4710    -0.4410     0.8700 hc         1 SMA       0.060700
     51 H16          1.1690    -0.8920    -2.1310 h1         1 SMA       0.032700
     52 H17          3.4550    -0.2200    -1.7880 hc         1 SMA       0.051700
     53 H18          3.6640    -0.6800     0.6840 h1         1 SMA       0.032700
     54 H19          6.1310    -1.9830    -0.5260 ha         1 SMA       0.180000
     55 H21          5.5640     0.9270     0.3510 ha         1 SMA       0.166000
     56 H22          8.1790    -0.5860    -0.4560 ha         1 SMA       0.174000
     57 H23          7.6020     2.3040     0.4110 ha         1 SMA       0.168000
     58 H25          9.4340     3.7710     0.5280 ha         1 SMA       0.168000
     59 H26         11.6510     4.5270     0.3940 hc         1 SMA       0.040700
     60 H27         12.2180     2.9000     0.7960 hc         1 SMA       0.040700
     61 H28         11.9580     3.3590    -0.8990 hc         1 SMA       0.040700
     62 H29          1.2880     1.6710    -1.3580 hc         1 SMA       0.036033
     63 H30          1.2670     2.0110     0.3860 hc         1 SMA       0.036033
     64 H31          2.7140     1.3500    -0.3470 hc         1 SMA       0.036033
     65 H32          0.1810    -4.2120    -1.3510 h1         1 SMA       0.026700
     66 H33         -0.4450    -2.7100    -2.0630 h1         1 SMA       0.026700
     67 H34          1.0890    -3.4000    -2.6440 h1         1 SMA       0.026700
     68 H35          3.4450    -3.2400    -2.1820 hc         1 SMA       0.038033
     69 H36          3.0270    -2.0310    -3.4190 hc         1 SMA       0.038033
     70 H37          4.6640    -2.0820    -2.7450 hc         1 SMA       0.038033
     71 H38          5.4280    -2.6810     1.9660 h1         1 SMA       0.027033
     72 H39          3.7980    -2.2310     2.5280 h1         1 SMA       0.027033
     73 H40          4.1910    -3.9330     2.2020 h1         1 SMA       0.027033
     74 H41         10.2600     0.2270    -1.4830 hc         1 SMA       0.040700
     75 H42         11.6140     0.9000    -0.5830 hc         1 SMA       0.040700
     76 H43         10.5200    -0.2290     0.2090 hc         1 SMA       0.040700
     77 H44         -5.2260     3.4470    -1.7440 ho         1 SMA       0.475000
     78 C23          0.4690    -3.2330    -1.7540 c3         1 SMA       0.147900
     79 C25          4.3580    -2.9020     1.8640 c3         1 SMA       0.144900
@<TRIPOS>BOND
     1     1     2 2   
     2     1    13 1   
     3     1    29 1   
     4     2     3 1   
     5     2     4 1   
     6     3    36 1   
     7     3    37 1   
     8     3    38 1   
     9     4     5 1   
    10     4    30 2   
    11     5     6 ar  
    12     5    12 ar  
    13     6     8 ar  
    14     6    31 1   
    15     7    31 1   
    16     7    39 1   
    17     7    40 1   
    18     7    41 1   
    19     8     9 ar  
    20     8    42 1   
    21     9    11 ar  
    22     9    32 1   
    23    10    32 1   
    24    10    43 1   
    25    10    44 1   
    26    10    45 1   
    27    11    12 ar  
    28    11    33 1   
    29    12    29 1   
    30    13    14 1   
    31    13    46 1   
    32    13    47 1   
    33    14    15 1   
    34    14    48 1   
    35    14    49 1   
    36    15    16 1   
    37    15    26 1   
    38    15    50 1   
    39    16    17 1   
    40    16    34 1   
    41    16    51 1   
    42    17    18 1   
    43    17    27 1   
    44    17    52 1   
    45    18    19 1   
    46    18    35 1   
    47    18    53 1   
    48    19    20 2   
    49    19    54 1   
    50    20    21 1   
    51    20    55 1   
    52    21    22 2   
    53    21    56 1   
    54    22    23 1   
    55    22    57 1   
    56    23    24 2   
    57    23    28 1   
    58    24    25 1   
    59    24    58 1   
    60    25    59 1   
    61    25    60 1   
    62    25    61 1   
    63    26    62 1   
    64    26    63 1   
    65    26    64 1   
    66    27    68 1   
    67    27    69 1   
    68    27    70 1   
    69    28    74 1   
    70    28    75 1   
    71    28    76 1   
    72    33    77 1   
    73    34    78 1   
    74    35    79 1   
    75    65    78 1   
    76    66    78 1   
    77    67    78 1   
    78    71    79 1   
    79    72    79 1   
    80    73    79 1   
@<TRIPOS>SUBSTRUCTURE
     1 SMA         1 TEMP              0 ****  ****    0 ROOT
