@<TRIPOS>MOLECULE
SMB
   16    15     1     0     0
SMALL
bcc


@<TRIPOS>ATOM
      1 C1           2.7470     0.2810     0.2950 c3         1 SMB      -0.086100
      2 C2           1.3340     0.7040    -0.0920 c3         1 SMB      -0.055400
      3 C3           0.2610    -0.3240     0.2600 c3         1 SMB      -0.192700
      4 C4           0.4390    -1.6290    -0.5150 c3         1 SMB      -0.058100
      5 C5          -1.1830     0.2060     0.0840 c          1 SMB       0.928600
      6 O1          -2.1000    -0.6060     0.3330 o          1 SMB      -0.845800
      7 O2          -1.3360     1.3890    -0.2800 o          1 SMB      -0.845800
      8 H11          2.8170     0.0630     1.3630 hc         1 SMB       0.008367
      9 H12          3.0750    -0.6090    -0.2430 hc         1 SMB       0.008367
     10 H13          3.4670     1.0710     0.0750 hc         1 SMB       0.008367
     11 H21          1.0990     1.6470     0.4060 hc         1 SMB       0.039200
     12 H22          1.3000     0.9150    -1.1650 hc         1 SMB       0.039200
     13 H3           0.3720    -0.5640     1.3280 hc         1 SMB       0.022700
     14 H41          0.3320    -1.4640    -1.5910 hc         1 SMB       0.010033
     15 H42          1.4240    -2.0680    -0.3510 hc         1 SMB       0.010033
     16 H43         -0.3040    -2.3660    -0.2160 hc         1 SMB       0.010033
@<TRIPOS>BOND
     1     1     2 1   
     2     1     8 1   
     3     1     9 1   
     4     1    10 1   
     5     2     3 1   
     6     2    11 1   
     7     2    12 1   
     8     3     4 1   
     9     3     5 1   
    10     3    13 1   
    11     4    14 1   
    12     4    15 1   
    13     4    16 1   
    14     5     6 1   
    15     5     7 1   
@<TRIPOS>SUBSTRUCTURE
     1 SMB         1 TEMP              0 ****  ****    0 ROOT
