@<TRIPOS>MOLECULE
SMB
   16    15     1     0     0
SMALL
No Charge or Current Charge


@<TRIPOS>ATOM
      1 C1           2.7600     0.2890     0.3990 c3         1 SMB      -0.086100
      2 C2           1.3160     0.7130     0.0580 c3         1 SMB      -0.055400
      3 C3           0.2540    -0.4090     0.2310 c3         1 SMB      -0.192700
      4 C4           0.4540    -1.5930    -0.7480 c3         1 SMB      -0.058100
      5 C5          -1.1810     0.1640     0.1210 c          1 SMB       0.718000
      6 O1          -1.9070     0.0880     1.1010 o          1 SMB      -0.740500
      7 O2          -1.5320     0.6740    -0.9340 o          1 SMB      -0.740500
      8 H11          2.8170    -0.1120     1.4180 hc         1 SMB       0.008367
      9 H12          3.1240    -0.4750    -0.2980 hc         1 SMB       0.008367
     10 H13          3.4340     1.1520     0.3340 hc         1 SMB       0.008367
     11 H21          1.0460     1.5550     0.7080 hc         1 SMB       0.039200
     12 H22          1.2880     1.0930    -0.9710 hc         1 SMB       0.039200
     13 H3           0.3680    -0.8110     1.2460 hc         1 SMB       0.022700
     14 H41          0.4320    -1.2500    -1.7890 hc         1 SMB       0.010033
     15 H42          1.4120    -2.0960    -0.5700 hc         1 SMB       0.010033
     16 H43         -0.3410    -2.3360    -0.6150 hc         1 SMB       0.010033
@<TRIPOS>BOND
     1     1     2 1   
     2     1     8 1   
     3     1     9 1   
     4     1    10 1   
     5     2     3 1   
     6     2    11 1   
     7     2    12 1   
     8     3     4 1   
     9     3     5 1   
    10     3    13 1   
    11     4    14 1   
    12     4    15 1   
    13     4    16 1   
    14     5     6 1   
    15     5     7 1   
@<TRIPOS>SUBSTRUCTURE
     1 SMB         1 TEMP              0 ****  ****    0 ROOT
