@<TRIPOS>MOLECULE
SME
   21    20     1     0     0
SMALL
bcc


@<TRIPOS>ATOM
      1 N           -1.8050    -0.6710    -1.7840 NT         1 SME      -0.897800
      2 CA          -0.6690     0.1790    -1.4980 CT         1 SME       0.137500
      3 CB           0.1510    -0.1650    -0.2400 CT         1 SME      -0.094400
      4 CG          -0.4900     0.3820     1.0070 CT         1 SME      -0.095100
      5 S            0.5290     0.0020     2.3950 DU         1 SME       0.269600
      6 OE           0.2870    -1.4400     2.6760 O          1 SME      -0.500200
      7 CE          -0.3440     0.8720     3.6190 CT         1 SME      -0.132800
      8 C            0.3000     0.1830    -2.6690 C          1 SME       0.637100
      9 O            0.6230    -0.7390    -3.4190 O          1 SME      -0.532000
     10 OXT          0.8740     1.3980    -2.8880 OH         1 SME      -0.613100
     11 H           -2.5830    -0.4080    -1.2130 H          1 SME       0.366300
     12 H2          -1.5830    -1.6370    -1.6270 H          1 SME       0.366300
     13 HA          -1.0700     1.2320    -1.3790 H1         1 SME       0.086700
     14 HB2          1.1760     0.2780    -0.3640 HC         1 SME       0.066700
     15 HB3          0.2650    -1.2790    -0.1520 HC         1 SME       0.066700
     16 HG2         -1.5180    -0.0420     1.1300 H1         1 SME       0.082700
     17 HG3         -0.6030     1.4920     0.9260 H1         1 SME       0.082700
     18 HE1          0.1840     0.7510     4.5940 H1         1 SME       0.086367
     19 HE2         -0.3850     1.9580     3.3780 H1         1 SME       0.086367
     20 HE3         -1.3890     0.5150     3.7710 H1         1 SME       0.086367
     21 HXT          1.4800     1.3400    -3.6450 HO         1 SME       0.445000
@<TRIPOS>BOND
     1     1     2 1   
     2     1    11 1   
     3     1    12 1   
     4     2     3 1   
     5     2     8 1   
     6     2    13 1   
     7     3     4 1   
     8     3    14 1   
     9     3    15 1   
    10     4     5 1   
    11     4    16 1   
    12     4    17 1   
    13     5     6 2   
    14     5     7 1   
    15     7    18 1   
    16     7    19 1   
    17     7    20 1   
    18     8     9 2   
    19     8    10 1   
    20    10    21 1   
@<TRIPOS>SUBSTRUCTURE
     1 SME         1 TEMP              0 ****  ****    0 ROOT
