@<TRIPOS>MOLECULE
SMG
   29    28     1     0     0
SMALL
bcc


@<TRIPOS>ATOM
      1 O61          1.4560     0.5900    -5.5420 o          1 SMG      -0.863800
      2 O62          1.1000    -1.4100    -4.6290 o          1 SMG      -0.863800
      3 C6           1.0350    -0.1650    -4.6400 c          1 SMG       0.924600
      4 C5           0.3560     0.5340    -3.4490 c3         1 SMG      -0.193400
      5 C4           0.0490    -0.3650    -2.2650 c3         1 SMG      -0.134400
      6 O31         -1.3530     1.3390    -1.3040 o          1 SMG      -0.638100
      7 C3          -0.6380     0.3600    -1.1270 c          1 SMG       0.664100
      8 N1          -0.3920    -0.1390     0.0970 ns         1 SMG      -0.551900
      9 C2          -2.6000    -0.2150     1.2690 c          1 SMG       0.926600
     10 C1          -1.1300     0.2840     1.2620 c3         1 SMG      -0.033300
     11 CB          -0.4130    -0.1760     2.5320 c3         1 SMG      -0.066400
     12 CG           1.0180     0.3330     2.6210 c3         1 SMG       0.044700
     13 SD           1.7300    -0.1250     4.2270 ss         1 SMG      -0.402200
     14 CE           3.4280     0.4390     3.9850 c3         1 SMG      -0.003000
     15 H51         -0.5680     0.9930    -3.8120 hc         1 SMG       0.028700
     16 H52          0.9840     1.3720    -3.1320 hc         1 SMG       0.028700
     17 H41          0.9610    -0.8440    -1.9010 hc         1 SMG       0.051200
     18 H42         -0.6070    -1.1840    -2.5780 hc         1 SMG       0.051200
     19 HN1          0.0880    -1.0250     0.1440 hn         1 SMG       0.286500
     20 H1          -1.1490     1.3770     1.2680 h1         1 SMG       0.056700
     21 HB1         -0.4200    -1.2700     2.5910 hc         1 SMG       0.053700
     22 HB2         -0.9880     0.1880     3.3850 hc         1 SMG       0.053700
     23 HG1          1.0460     1.4200     2.5100 h1         1 SMG       0.056200
     24 HG2          1.6380    -0.0970     1.8320 h1         1 SMG       0.056200
     25 HE1          3.9910     0.1980     4.8850 h1         1 SMG       0.046033
     26 HE2          3.8900    -0.0680     3.1390 h1         1 SMG       0.046033
     27 HE3          3.4700     1.5160     3.8260 h1         1 SMG       0.046033
     28 O11         -3.3160     0.2850     2.1600 o          1 SMG      -0.834800
     29 O12         -2.9290    -1.0620     0.4230 o          1 SMG      -0.834800
@<TRIPOS>BOND
     1     1     3 1   
     2     2     3 1   
     3     3     4 1   
     4     4     5 1   
     5     4    15 1   
     6     4    16 1   
     7     5     7 1   
     8     5    17 1   
     9     5    18 1   
    10     6     7 2   
    11     7     8 1   
    12     8    10 1   
    13     8    19 1   
    14     9    10 1   
    15     9    28 1   
    16     9    29 1   
    17    10    11 1   
    18    10    20 1   
    19    11    12 1   
    20    11    21 1   
    21    11    22 1   
    22    12    13 1   
    23    12    23 1   
    24    12    24 1   
    25    13    14 1   
    26    14    25 1   
    27    14    26 1   
    28    14    27 1   
@<TRIPOS>SUBSTRUCTURE
     1 SMG         1 TEMP              0 ****  ****    0 ROOT
