@<TRIPOS>MOLECULE
SMG
   29    28     1     0     0
SMALL
No Charge or Current Charge


@<TRIPOS>ATOM
      1 O61          1.6240    -1.7040    -4.1100 o          1 SMG      -0.758500
      2 O62          1.6800     0.3280    -4.8190 o          1 SMG      -0.758500
      3 C6           1.5630    -0.4980    -3.9260 c          1 SMG       0.714000
      4 C5           1.2520     0.0060    -2.5060 c3         1 SMG      -0.193400
      5 C4          -0.2840     0.1200    -2.2910 c3         1 SMG      -0.134400
      6 O31         -0.5040     1.7870    -0.5440 o          1 SMG      -0.638100
      7 C3          -0.6320     0.6180    -0.8810 c          1 SMG       0.597100
      8 N1          -1.1340    -0.3460    -0.0310 ns         1 SMG      -0.484900
      9 C2          -2.7880    -0.9870     1.7370 c          1 SMG       0.716000
     10 C1          -1.5310    -0.1300     1.3830 c3         1 SMG      -0.033300
     11 CB          -0.3660    -0.4110     2.3670 c3         1 SMG      -0.066400
     12 CG           0.8590     0.5060     2.1770 c3         1 SMG       0.092600
     13 SD           2.1400     0.1530     3.4660 ss         1 SMG      -0.498000
     14 CE           3.4420     1.3620     2.9530 c3         1 SMG       0.044900
     15 H51          1.6520     1.0170    -2.3640 hc         1 SMG       0.028700
     16 H52          1.6040    -0.7160    -1.7580 hc         1 SMG       0.028700
     17 H41         -0.7290    -0.8690    -2.4560 hc         1 SMG       0.051200
     18 H42         -0.6850     0.8320    -3.0230 hc         1 SMG       0.051200
     19 HN1         -1.2290    -1.2810    -0.4120 hn         1 SMG       0.286500
     20 H1          -1.8280     0.9200     1.4990 h1         1 SMG       0.056700
     21 HB1         -0.0510    -1.4570     2.2700 hc         1 SMG       0.053700
     22 HB2         -0.7390    -0.2870     3.3920 hc         1 SMG       0.053700
     23 HG1          0.5510     1.5570     2.2530 h1         1 SMG       0.056200
     24 HG2          1.2990     0.3430     1.1850 h1         1 SMG       0.056200
     25 HE1          4.3030     1.2890     3.6290 h1         1 SMG       0.046033
     26 HE2          3.7700     1.1450     1.9290 h1         1 SMG       0.046033
     27 HE3          3.0390     2.3830     2.9940 h1         1 SMG       0.046033
     28 O11         -3.7730    -0.4120     2.1780 o          1 SMG      -0.729500
     29 O12         -2.7700    -2.1850     1.4840 o          1 SMG      -0.729500
@<TRIPOS>BOND
     1     1     3 1   
     2     2     3 1   
     3     3     4 1   
     4     4     5 1   
     5     4    15 1   
     6     4    16 1   
     7     5     7 1   
     8     5    17 1   
     9     5    18 1   
    10     6     7 2   
    11     7     8 1   
    12     8    10 1   
    13     8    19 1   
    14     9    10 1   
    15     9    28 1   
    16     9    29 1   
    17    10    11 1   
    18    10    20 1   
    19    11    12 1   
    20    11    21 1   
    21    11    22 1   
    22    12    13 1   
    23    12    23 1   
    24    12    24 1   
    25    13    14 1   
    26    14    25 1   
    27    14    26 1   
    28    14    27 1   
@<TRIPOS>SUBSTRUCTURE
     1 SMG         1 TEMP              0 ****  ****    0 ROOT
