@<TRIPOS>MOLECULE
SMH
   76    79     1     0     0
SMALL
No Charge or Current Charge


@<TRIPOS>ATOM
      1 C1           3.9070    -1.6460    -3.9070 ca         1 SMH       0.085100
      2 C2           4.0750    -0.2550    -3.7980 ca         1 SMH      -0.147000
      3 C3           4.4120     0.3140    -2.5560 ca         1 SMH      -0.097000
      4 C4           4.5770    -0.5030    -1.4250 ca         1 SMH       0.147100
      5 C5           4.4300    -1.9000    -1.5340 ca         1 SMH      -0.230600
      6 C6           4.0850    -2.4670    -2.7810 ca         1 SMH      -0.068000
      7 O7           4.8970     0.0880    -0.2210 os         1 SMH      -0.321100
      8 C8           4.6700    -0.6220     1.0210 c6         1 SMH       0.193000
      9 C9           5.2520    -2.0470     0.8820 c6         1 SMH      -0.209400
     10 C10          4.6500    -2.7530    -0.3240 c          1 SMH       0.591700
     11 C11          3.1330    -0.6760     1.3490 c6         1 SMH       0.153800
     12 N12          2.5260     0.6690     1.6190 n3         1 SMH      -0.738600
     13 C13          3.2350     1.3650     2.7270 c6         1 SMH       0.190800
     14 C14          4.7470     1.5120     2.4350 c6         1 SMH      -0.072400
     15 C15          5.4000     0.1340     2.1660 c6         1 SMH      -0.062400
     16 O16          3.5790    -2.2050    -5.1080 oh         1 SMH      -0.535100
     17 O17          4.3210    -3.9310    -0.2780 o          1 SMH      -0.518100
     18 C18          1.0500     0.6310     1.8370 c3         1 SMH       0.159800
     19 C19          0.1760     0.1300     0.6440 c3         1 SMH       0.156300
     20 O20          0.2890     0.9930    -0.5020 oh         1 SMH      -0.630000
     21 C21         -1.3270     0.0510     1.0160 c3         1 SMH       0.180800
     22 N22         -2.2350    -0.0910    -0.1600 n3         1 SMH      -0.762500
     23 C23         -2.0460    -1.3340    -0.9730 c3         1 SMH       0.211800
     24 C24         -2.3570    -2.6950    -0.2860 c3         1 SMH       0.131600
     25 C25         -3.7220     2.0930     0.6030 ca         1 SMH      -0.262500
     26 C26         -3.3840     3.0380    -0.4180 ca         1 SMH       0.027700
     27 C27         -3.2730     4.4050    -0.1000 ca         1 SMH      -0.148000
     28 C28         -3.4780     4.8620     1.2020 ca         1 SMH      -0.054000
     29 C29         -3.7950     3.9510     2.2100 ca         1 SMH      -0.148000
     30 C30         -3.9200     2.5740     1.9380 ca         1 SMH       0.027700
     31 C31         -4.2620     1.6850     3.1340 c3         1 SMH      -0.069300
     32 C32         -3.1250     2.6630    -1.8800 c3         1 SMH      -0.069300
     33 S33         -3.8620     0.3100     0.1780 sy         1 SMH       1.178600
     34 O34         -4.5730     0.2160    -1.1020 o          1 SMH      -0.542500
     35 O35         -4.2670    -0.5080     1.3250 o          1 SMH      -0.542500
     36 O36         -3.7590    -2.9960    -0.4240 os         1 SMH      -0.463000
     37 C37         -5.6880    -4.3560    -0.0050 c3         1 SMH      -0.095100
     38 C38         -4.1760    -4.2060     0.2240 c3         1 SMH       0.169600
     39 H2           3.9440     0.3890    -4.6650 ha         1 SMH       0.117000
     40 H3           4.5360     1.3900    -2.4640 ha         1 SMH       0.142000
     41 H6           3.9620    -3.5440    -2.8820 ha         1 SMH       0.146000
     42 H9           6.3200    -1.9260     0.6610 hc         1 SMH       0.083700
     43 H9A          5.1430    -2.6620     1.7850 hc         1 SMH       0.083700
     44 H11          2.6180    -1.1590     0.5080 h1         1 SMH       0.039700
     45 H11A         2.9830    -1.3290     2.2220 h1         1 SMH       0.039700
     46 H13          2.8090     2.3670     2.8810 h1         1 SMH       0.029700
     47 H13A         3.1040     0.8100     3.6680 h1         1 SMH       0.029700
     48 H14          4.8900     2.1720     1.5680 hc         1 SMH       0.056200
     49 H14A         5.2420     2.0010     3.2850 hc         1 SMH       0.056200
     50 H15          5.3700    -0.4660     3.0860 hc         1 SMH       0.052200
     51 H15A         6.4610     0.2680     1.9160 hc         1 SMH       0.052200
     52 HO16         3.5000    -1.4910    -5.7770 ho         1 SMH       0.465000
     53 H18          0.8330    -0.0060     2.7050 h1         1 SMH       0.034700
     54 H18A         0.6990     1.6390     2.0970 h1         1 SMH       0.034700
     55 H19          0.4950    -0.8860     0.3780 h1         1 SMH       0.082700
     56 HO20        -0.6170     0.9800    -0.8860 ho         1 SMH       0.436000
     57 H21         -1.4790    -0.7690     1.7300 h1         1 SMH       0.049700
     58 H21A        -1.5640     0.9760     1.5570 h1         1 SMH       0.049700
     59 H23         -2.6380    -1.2780    -1.8970 h1         1 SMH       0.075200
     60 H23A        -1.0030    -1.3860    -1.3100 h1         1 SMH       0.075200
     61 H24         -1.7640    -3.4760    -0.7810 h1         1 SMH       0.033700
     62 H24A        -2.0570    -2.6670     0.7690 h1         1 SMH       0.033700
     63 H27         -3.0230     5.1280    -0.8730 ha         1 SMH       0.114500
     64 H28         -3.3870     5.9220     1.4310 ha         1 SMH       0.115000
     65 H29         -3.9460     4.3260     3.2200 ha         1 SMH       0.114500
     66 H31         -5.2280     1.1860     2.9960 hc         1 SMH       0.059533
     67 H31A        -3.4890     0.9280     3.3060 hc         1 SMH       0.059533
     68 H31B        -4.3420     2.2610     4.0630 hc         1 SMH       0.059533
     69 H32         -4.0590     2.4180    -2.3970 hc         1 SMH       0.059533
     70 H32A        -2.6680     3.4910    -2.4350 hc         1 SMH       0.059533
     71 H32B        -2.4390     1.8170    -1.9810 hc         1 SMH       0.059533
     72 H37         -5.9130    -4.4170    -1.0760 hc         1 SMH       0.048367
     73 H37A        -6.0550    -5.2700     0.4770 hc         1 SMH       0.048367
     74 H37B        -6.2290    -3.5020     0.4200 hc         1 SMH       0.048367
     75 H38         -3.6520    -5.0740    -0.1970 h1         1 SMH       0.017200
     76 H38A        -3.9720    -4.1610     1.3020 h1         1 SMH       0.017200
@<TRIPOS>BOND
     1     1     2 ar  
     2     1     6 ar  
     3     1    16 1   
     4     2     3 ar  
     5     2    39 1   
     6     3     4 ar  
     7     3    40 1   
     8     4     5 ar  
     9     4     7 1   
    10     5     6 ar  
    11     5    10 1   
    12     6    41 1   
    13     7     8 1   
    14     8     9 1   
    15     8    11 1   
    16     8    15 1   
    17     9    10 1   
    18     9    42 1   
    19     9    43 1   
    20    10    17 2   
    21    11    12 1   
    22    11    44 1   
    23    11    45 1   
    24    12    13 1   
    25    12    18 1   
    26    13    14 1   
    27    13    46 1   
    28    13    47 1   
    29    14    15 1   
    30    14    48 1   
    31    14    49 1   
    32    15    50 1   
    33    15    51 1   
    34    16    52 1   
    35    18    19 1   
    36    18    53 1   
    37    18    54 1   
    38    19    20 1   
    39    19    21 1   
    40    19    55 1   
    41    20    56 1   
    42    21    22 1   
    43    21    57 1   
    44    21    58 1   
    45    22    23 1   
    46    22    33 1   
    47    23    24 1   
    48    23    59 1   
    49    23    60 1   
    50    24    36 1   
    51    24    61 1   
    52    24    62 1   
    53    25    26 ar  
    54    25    30 ar  
    55    25    33 1   
    56    26    27 ar  
    57    26    32 1   
    58    27    28 ar  
    59    27    63 1   
    60    28    29 ar  
    61    28    64 1   
    62    29    30 ar  
    63    29    65 1   
    64    30    31 1   
    65    31    66 1   
    66    31    67 1   
    67    31    68 1   
    68    32    69 1   
    69    32    70 1   
    70    32    71 1   
    71    33    34 2   
    72    33    35 2   
    73    36    38 1   
    74    37    38 1   
    75    37    72 1   
    76    37    73 1   
    77    37    74 1   
    78    38    75 1   
    79    38    76 1   
@<TRIPOS>SUBSTRUCTURE
     1 SMH         1 TEMP              0 ****  ****    0 ROOT
