@<TRIPOS>MOLECULE
SMH
   76    79     1     0     0
SMALL
bcc


@<TRIPOS>ATOM
      1 C1           2.0020    -1.2130    -3.1720 ca         1 SMH       0.085100
      2 C2           1.9780     0.1520    -2.8690 ca         1 SMH      -0.165000
      3 C3           2.7230     0.6580    -1.8220 ca         1 SMH      -0.115000
      4 C4           3.5190    -0.1880    -1.0580 ca         1 SMH       0.147100
      5 C5           3.5570    -1.5520    -1.3610 ca         1 SMH      -0.230600
      6 C6           2.7930    -2.0570    -2.4140 ca         1 SMH      -0.086000
      7 O7           4.2290     0.3370    -0.0430 os         1 SMH      -0.297900
      8 C8           4.4420    -0.5300     1.0790 c6         1 SMH       0.169800
      9 C9           5.1470    -1.7870     0.5890 c6         1 SMH      -0.209400
     10 C10          4.4060    -2.4460    -0.5500 c          1 SMH       0.591700
     11 C11          3.0960    -0.8670     1.7270 c6         1 SMH       0.153800
     12 N12          2.4140     0.3370     2.1190 n3         1 SMH      -0.738600
     13 C13          3.1310     1.0260     3.1680 c6         1 SMH       0.190800
     14 C14          4.5050     1.4430     2.6550 c6         1 SMH      -0.072400
     15 C15          5.2750     0.2550     2.0820 c6         1 SMH      -0.062400
     16 O16          1.2680    -1.7490    -4.1720 oh         1 SMH      -0.496100
     17 O17          4.5230    -3.6290    -0.7940 o          1 SMH      -0.518100
     18 C18          0.9950     0.1490     2.3020 c3         1 SMH       0.159800
     19 C19          0.2710     0.2080     0.9540 c3         1 SMH       0.133100
     20 O20          0.2550     1.5010     0.4110 oh         1 SMH      -0.567800
     21 C21         -1.1280    -0.3900     1.0780 c3         1 SMH       0.180800
     22 N22         -1.8260    -0.4250    -0.2000 n3         1 SMH      -0.762500
     23 C23         -1.4040    -1.4180    -1.1790 c3         1 SMH       0.211800
     24 C24         -1.7540    -2.8430    -0.8000 c3         1 SMH       0.108400
     25 C25         -3.1340     1.8860     0.0760 ca         1 SMH      -0.262500
     26 C26         -2.4680     2.6120    -0.9340 ca         1 SMH       0.027700
     27 C27         -2.3030     3.9810    -0.7530 ca         1 SMH      -0.166000
     28 C28         -2.7660     4.6190     0.3840 ca         1 SMH      -0.072000
     29 C29         -3.4030     3.8880     1.3650 ca         1 SMH      -0.166000
     30 C30         -3.6060     2.5120     1.2440 ca         1 SMH       0.027700
     31 C31         -4.3030     1.8480     2.4040 c3         1 SMH      -0.069300
     32 C32         -1.9000     2.0240    -2.1950 c3         1 SMH      -0.069300
     33 S33         -3.3780     0.1290    -0.2090 sy         1 SMH       1.320200
     34 O34         -3.9160    -0.0490    -1.5490 o          1 SMH      -0.613300
     35 O35         -4.1410    -0.4340     0.8950 o          1 SMH      -0.613300
     36 O36         -3.1480    -2.9710    -0.7600 os         1 SMH      -0.416600
     37 C37         -5.1310    -3.9250     0.1420 c3         1 SMH      -0.095100
     38 C38         -3.6200    -3.9310     0.1570 c3         1 SMH       0.146400
     39 H2           1.3570     0.8270    -3.4470 ha         1 SMH       0.135000
     40 H3           2.6690     1.7090    -1.5750 ha         1 SMH       0.160000
     41 H6           2.8210    -3.1170    -2.6370 ha         1 SMH       0.164000
     42 H9           6.1490    -1.5290     0.2230 hc         1 SMH       0.083700
     43 H9A          5.2840    -2.5060     1.3990 hc         1 SMH       0.083700
     44 H11          2.4660    -1.4370     1.0400 h1         1 SMH       0.039700
     45 H11A         3.2880    -1.5420     2.5810 h1         1 SMH       0.039700
     46 H13          2.5670     1.9120     3.4660 h1         1 SMH       0.029700
     47 H13A         3.2470     0.3990     4.0710 h1         1 SMH       0.029700
     48 H14          4.3770     2.2100     1.8900 hc         1 SMH       0.056200
     49 H14A         5.0800     1.8920     3.4670 hc         1 SMH       0.056200
     50 H15          5.5490    -0.4260     2.8920 hc         1 SMH       0.052200
     51 H15A         6.2100     0.5810     1.6180 hc         1 SMH       0.052200
     52 HO16         0.7880    -1.0620    -4.6460 ho         1 SMH       0.426000
     53 H18          0.7580    -0.7980     2.8130 h1         1 SMH       0.034700
     54 H18A         0.6040     0.9430     2.9470 h1         1 SMH       0.034700
     55 H19          0.8420    -0.3900     0.2370 h1         1 SMH       0.082700
     56 HO20        -0.2900     2.0660     0.9700 ho         1 SMH       0.397000
     57 H21         -1.0570    -1.3940     1.5080 h1         1 SMH       0.049700
     58 H21A        -1.7030     0.1960     1.8020 h1         1 SMH       0.049700
     59 H23         -1.8260    -1.1650    -2.1510 h1         1 SMH       0.075200
     60 H23A        -0.3210    -1.3330    -1.2910 h1         1 SMH       0.075200
     61 H24         -1.3060    -3.5260    -1.5340 h1         1 SMH       0.033700
     62 H24A        -1.3040    -3.0920     0.1700 h1         1 SMH       0.033700
     63 H27         -1.7920     4.5500    -1.5190 ha         1 SMH       0.132500
     64 H28         -2.6240     5.6850     0.5060 ha         1 SMH       0.133000
     65 H29         -3.7590     4.3870     2.2570 ha         1 SMH       0.132500
     66 H31         -5.2600     1.4160     2.1220 hc         1 SMH       0.059533
     67 H31A        -3.7050     1.0560     2.8510 hc         1 SMH       0.059533
     68 H31B        -4.4870     2.5930     3.1750 hc         1 SMH       0.059533
     69 H32         -2.6670     1.5920    -2.8340 hc         1 SMH       0.059533
     70 H32A        -1.3950     2.8030    -2.7620 hc         1 SMH       0.059533
     71 H32B        -1.1660     1.2500    -1.9770 hc         1 SMH       0.059533
     72 H37         -5.5230    -4.1940    -0.8390 hc         1 SMH       0.048367
     73 H37A        -5.5110    -4.6490     0.8640 hc         1 SMH       0.048367
     74 H37B        -5.5170    -2.9420     0.4110 hc         1 SMH       0.048367
     75 H38         -3.2430    -4.9320    -0.0960 h1         1 SMH       0.017200
     76 H38A        -3.2540    -3.7000     1.1670 h1         1 SMH       0.017200
@<TRIPOS>BOND
     1     1     2 ar  
     2     1     6 ar  
     3     1    16 1   
     4     2     3 ar  
     5     2    39 1   
     6     3     4 ar  
     7     3    40 1   
     8     4     5 ar  
     9     4     7 1   
    10     5     6 ar  
    11     5    10 1   
    12     6    41 1   
    13     7     8 1   
    14     8     9 1   
    15     8    11 1   
    16     8    15 1   
    17     9    10 1   
    18     9    42 1   
    19     9    43 1   
    20    10    17 2   
    21    11    12 1   
    22    11    44 1   
    23    11    45 1   
    24    12    13 1   
    25    12    18 1   
    26    13    14 1   
    27    13    46 1   
    28    13    47 1   
    29    14    15 1   
    30    14    48 1   
    31    14    49 1   
    32    15    50 1   
    33    15    51 1   
    34    16    52 1   
    35    18    19 1   
    36    18    53 1   
    37    18    54 1   
    38    19    20 1   
    39    19    21 1   
    40    19    55 1   
    41    20    56 1   
    42    21    22 1   
    43    21    57 1   
    44    21    58 1   
    45    22    23 1   
    46    22    33 1   
    47    23    24 1   
    48    23    59 1   
    49    23    60 1   
    50    24    36 1   
    51    24    61 1   
    52    24    62 1   
    53    25    26 ar  
    54    25    30 ar  
    55    25    33 1   
    56    26    27 ar  
    57    26    32 1   
    58    27    28 ar  
    59    27    63 1   
    60    28    29 ar  
    61    28    64 1   
    62    29    30 ar  
    63    29    65 1   
    64    30    31 1   
    65    31    66 1   
    66    31    67 1   
    67    31    68 1   
    68    32    69 1   
    69    32    70 1   
    70    32    71 1   
    71    33    34 2   
    72    33    35 2   
    73    36    38 1   
    74    37    38 1   
    75    37    72 1   
    76    37    73 1   
    77    37    74 1   
    78    38    75 1   
    79    38    76 1   
@<TRIPOS>SUBSTRUCTURE
     1 SMH         1 TEMP              0 ****  ****    0 ROOT
