@<TRIPOS>MOLECULE
SMK
   76    79     1     0     0
SMALL
No Charge or Current Charge


@<TRIPOS>ATOM
      1 CAA         30.0610    -6.4690     6.3960 c3         1 SMK      -0.093100
      2 CB          29.4530    -5.1210     5.9510 c3         1 SMK      -0.068400
      3 CA          29.5090    -4.0140     7.0340 c3         1 SMK       0.094500
      4 N           28.7560    -2.8070     6.5550 n8         1 SMK      -0.989200
      5 C           30.9880    -3.7290     7.4910 c          1 SMK       0.558100
      6 O           31.7920    -3.1200     6.7950 o          1 SMK      -0.622100
      7 NAY         31.3130    -4.1830     8.7530 ns         1 SMK      -0.496900
      8 CBI         32.6400    -4.0440     9.3970 c3         1 SMK       0.046700
      9 CBB         32.8280    -5.1660    10.4670 c          1 SMK       0.561000
     10 OAF         31.9110    -5.9380    10.7380 o          1 SMK      -0.596000
     11 NBK         34.0560    -5.2660    11.1550 n          1 SMK      -0.387800
     12 CBF         32.8560    -2.5990     9.9450 c3         1 SMK      -0.067700
     13 CAS         32.0880    -2.3420    11.2830 c3         1 SMK      -0.076400
     14 CAQ         32.1080    -0.8860    11.8060 c3         1 SMK       0.151800
     15 NAB         31.4380     0.0550    10.8860 n8         1 SMK      -1.008200
     16 CAT         34.3620    -2.2230     9.9930 c3         1 SMK      -0.067400
     17 CAU         35.2270    -3.0180    10.9940 c3         1 SMK      -0.095400
     18 CBG         35.2870    -4.5440    10.7500 c5         1 SMK       0.128700
     19 CAV         36.3590    -5.1990    11.6740 c5         1 SMK      -0.091400
     20 CAW         35.8240    -6.6370    11.8470 c5         1 SMK      -0.080400
     21 CBJ         34.3140    -6.3750    12.1170 c5         1 SMK       0.028700
     22 CBA         34.0770    -5.9870    13.6120 c          1 SMK       0.594100
     23 OAE         33.8200    -4.8780    14.0650 o          1 SMK      -0.596100
     24 NAX         34.1590    -7.1170    14.3950 ns         1 SMK      -0.501900
     25 CBH         34.0070    -7.1240    15.8470 c3         1 SMK       0.209300
     26 CBC         35.2330    -6.5560    16.5690 ca         1 SMK      -0.098800
     27 CAM         35.0540    -5.8250    17.7620 ca         1 SMK      -0.094750
     28 CAI         36.1610    -5.2930    18.4460 ca         1 SMK      -0.111750
     29 CAG         37.4580    -5.4870    17.9450 ca         1 SMK      -0.104500
     30 CAJ         37.6480    -6.2160    16.7590 ca         1 SMK      -0.111750
     31 CAN         36.5420    -6.7490    16.0750 ca         1 SMK      -0.094750
     32 CBD         33.6600    -8.5250    16.3440 ca         1 SMK      -0.098800
     33 CAO         32.4280    -8.7610    16.9870 ca         1 SMK      -0.094750
     34 CAK         32.1000   -10.0480    17.4470 ca         1 SMK      -0.111750
     35 CAH         33.0000   -11.1110    17.2660 ca         1 SMK      -0.104500
     36 CAL         34.2300   -10.8850    16.6260 ca         1 SMK      -0.111750
     37 CAP         34.5590    -9.5980    16.1670 ca         1 SMK      -0.094750
     38 HAA         29.9360    -7.2210     5.6080 hc         1 SMK       0.035367
     39 HAAA        31.1330    -6.3720     6.6030 hc         1 SMK       0.035367
     40 HAAB        29.5640    -6.8390     7.3020 hc         1 SMK       0.035367
     41 HB          29.9760    -4.7770     5.0490 hc         1 SMK       0.056700
     42 HBA         28.4080    -5.2900     5.6640 hc         1 SMK       0.056700
     43 HA          28.9720    -4.3930     7.9160 h1         1 SMK       0.061700
     44 HN          28.7470    -2.0950     7.2970 hn         1 SMK       0.406500
     45 HNA         29.3030    -2.3560     5.8100 hn         1 SMK       0.406500
     46 HNAY        30.6000    -4.7010     9.2560 hn         1 SMK       0.341500
     47 HBI         33.3940    -4.2350     8.6220 h1         1 SMK       0.078700
     48 HBF         32.4220    -1.9190     9.2020 hc         1 SMK       0.093700
     49 HAS         31.0420    -2.6490    11.1590 hc         1 SMK       0.053200
     50 HASA        32.4960    -2.9840    12.0720 hc         1 SMK       0.053200
     51 HAQ         31.5880    -0.8480    12.7730 h1         1 SMK       0.029700
     52 HAQA        33.1420    -0.5540    11.9680 h1         1 SMK       0.029700
     53 HNAB        30.4470    -0.2010    10.8120 hn         1 SMK       0.391000
     54 HNAA        31.4150     0.9860    11.3200 hn         1 SMK       0.391000
     55 HAT         34.7870    -2.3500     8.9890 hc         1 SMK       0.047700
     56 HATA        34.4620    -1.1540    10.2160 hc         1 SMK       0.047700
     57 HAU         36.2450    -2.6120    10.9360 hc         1 SMK       0.060200
     58 HAUA        34.8850    -2.8140    12.0160 hc         1 SMK       0.060200
     59 HBG         35.5200    -4.7410     9.6950 h1         1 SMK       0.052700
     60 HAV         37.3590    -5.1740    11.2280 hc         1 SMK       0.063700
     61 HAVA        36.4300    -4.6900    12.6430 hc         1 SMK       0.063700
     62 HAW         35.9620    -7.2190    10.9280 hc         1 SMK       0.058200
     63 HAWA        36.3260    -7.1840    12.6530 hc         1 SMK       0.058200
     64 HBJ         33.7150    -7.2690    11.8950 h1         1 SMK       0.081700
     65 HNAX        34.3420    -7.9970    13.9300 hn         1 SMK       0.319500
     66 HBH         33.1570    -6.4670    16.0780 h1         1 SMK       0.084700
     67 HAM         34.0540    -5.6700    18.1620 ha         1 SMK       0.115250
     68 HAI         36.0120    -4.7310    19.3660 ha         1 SMK       0.113500
     69 HAG         38.3150    -5.0750    18.4750 ha         1 SMK       0.113500
     70 HAJ         38.6520    -6.3690    16.3710 ha         1 SMK       0.113500
     71 HAN         36.7100    -7.3130    15.1610 ha         1 SMK       0.115250
     72 HAO         31.7210    -7.9470    17.1330 ha         1 SMK       0.115250
     73 HAK         31.1470   -10.2220    17.9420 ha         1 SMK       0.113500
     74 HAH         32.7460   -12.1070    17.6220 ha         1 SMK       0.113500
     75 HAL         34.9290   -11.7070    16.4870 ha         1 SMK       0.113500
     76 HAP         35.5150    -9.4380    15.6750 ha         1 SMK       0.115250
@<TRIPOS>BOND
     1     1     2 1   
     2     1    38 1   
     3     1    39 1   
     4     1    40 1   
     5     2     3 1   
     6     2    41 1   
     7     2    42 1   
     8     3     4 1   
     9     3     5 1   
    10     3    43 1   
    11     4    44 1   
    12     4    45 1   
    13     5     6 2   
    14     5     7 1   
    15     7     8 1   
    16     7    46 1   
    17     8     9 1   
    18     8    12 1   
    19     8    47 1   
    20     9    10 2   
    21     9    11 1   
    22    11    18 1   
    23    11    21 1   
    24    12    13 1   
    25    12    16 1   
    26    12    48 1   
    27    13    14 1   
    28    13    49 1   
    29    13    50 1   
    30    14    15 1   
    31    14    51 1   
    32    14    52 1   
    33    15    53 1   
    34    15    54 1   
    35    16    17 1   
    36    16    55 1   
    37    16    56 1   
    38    17    18 1   
    39    17    57 1   
    40    17    58 1   
    41    18    19 1   
    42    18    59 1   
    43    19    20 1   
    44    19    60 1   
    45    19    61 1   
    46    20    21 1   
    47    20    62 1   
    48    20    63 1   
    49    21    22 1   
    50    21    64 1   
    51    22    23 2   
    52    22    24 1   
    53    24    25 1   
    54    24    65 1   
    55    25    26 1   
    56    25    32 1   
    57    25    66 1   
    58    26    27 ar  
    59    26    31 ar  
    60    27    28 ar  
    61    27    67 1   
    62    28    29 ar  
    63    28    68 1   
    64    29    30 ar  
    65    29    69 1   
    66    30    31 ar  
    67    30    70 1   
    68    31    71 1   
    69    32    33 ar  
    70    32    37 ar  
    71    33    34 ar  
    72    33    72 1   
    73    34    35 ar  
    74    34    73 1   
    75    35    36 ar  
    76    35    74 1   
    77    36    37 ar  
    78    36    75 1   
    79    37    76 1   
@<TRIPOS>SUBSTRUCTURE
     1 SMK         1 TEMP              0 ****  ****    0 ROOT
