@<TRIPOS>MOLECULE
SMK
   76    79     1     0     0
SMALL
abcg2


@<TRIPOS>ATOM
      1 CAA         30.3300    -6.5080     6.4390 c3         1 SMK      -0.093100
      2 CB          29.4550    -5.2580     6.4080 c3         1 SMK      -0.068400
      3 CA          29.5160    -4.4390     7.6980 c3         1 SMK       0.094500
      4 N           28.6130    -3.2860     7.6090 n8         1 SMK      -0.989200
      5 C           30.9560    -3.9960     7.9740 c          1 SMK       0.558100
      6 O           31.5580    -3.2540     7.1920 o          1 SMK      -0.622100
      7 NAY         31.4920    -4.4470     9.1170 ns         1 SMK      -0.496900
      8 CBI         32.8230    -4.1040     9.5740 c3         1 SMK       0.046700
      9 CBB         33.2020    -5.1280    10.6430 c          1 SMK       0.561000
     10 OAF         32.3560    -5.9060    11.0980 o          1 SMK      -0.596000
     11 NBK         34.4770    -5.1490    11.0550 n          1 SMK      -0.387800
     12 CBF         32.8800    -2.6400    10.0750 c3         1 SMK      -0.067700
     13 CAS         32.1760    -2.4660    11.4260 c3         1 SMK      -0.076400
     14 CAQ         31.6570    -1.0510    11.6660 c3         1 SMK       0.151800
     15 NAB         30.5570    -0.7330    10.7430 n8         1 SMK      -1.008200
     16 CAT         34.3060    -2.0830    10.0330 c3         1 SMK      -0.067400
     17 CAU         35.3320    -2.7800    10.9220 c3         1 SMK      -0.095400
     18 CBG         35.5770    -4.2540    10.6170 c5         1 SMK       0.128700
     19 CAV         36.7870    -4.8000    11.3910 c5         1 SMK      -0.091400
     20 CAW         36.4380    -6.2500    11.7150 c5         1 SMK      -0.080400
     21 CBJ         34.9200    -6.2100    11.9500 c5         1 SMK       0.028700
     22 CBA         34.5740    -5.9020    13.4090 c          1 SMK       0.594100
     23 OAE         34.5020    -4.7560    13.8430 o          1 SMK      -0.596100
     24 NAX         34.3970    -6.9910    14.1800 ns         1 SMK      -0.501900
     25 CBH         34.1490    -6.8980    15.6160 c3         1 SMK       0.209300
     26 CBC         35.4150    -6.6580    16.4220 ca         1 SMK      -0.098800
     27 CAM         35.3050    -6.0790    17.6860 ca         1 SMK      -0.094750
     28 CAI         36.4320    -5.8680    18.4700 ca         1 SMK      -0.111750
     29 CAG         37.6900    -6.2350    17.9960 ca         1 SMK      -0.104500
     30 CAJ         37.8070    -6.8110    16.7360 ca         1 SMK      -0.111750
     31 CAN         36.6740    -7.0200    15.9530 ca         1 SMK      -0.094750
     32 CBD         33.3770    -8.1290    16.0610 ca         1 SMK      -0.098800
     33 CAO         31.9830    -8.1040    16.0310 ca         1 SMK      -0.094750
     34 CAK         31.2470    -9.2270    16.3900 ca         1 SMK      -0.111750
     35 CAH         31.9010   -10.3920    16.7800 ca         1 SMK      -0.104500
     36 CAL         33.2920   -10.4240    16.8120 ca         1 SMK      -0.111750
     37 CAP         34.0260    -9.2970    16.4570 ca         1 SMK      -0.094750
     38 HAA         30.2130    -7.0840     5.5200 hc         1 SMK       0.035367
     39 HAAA        31.3880    -6.2540     6.5380 hc         1 SMK       0.035367
     40 HAAB        30.0620    -7.1540     7.2790 hc         1 SMK       0.035367
     41 HB          29.7520    -4.6120     5.5770 hc         1 SMK       0.056700
     42 HBA         28.4110    -5.5320     6.2430 hc         1 SMK       0.056700
     43 HA          29.1740    -5.0620     8.5280 h1         1 SMK       0.061700
     44 HN          28.6390    -2.7600     8.4790 hn         1 SMK       0.406500
     45 HNA         28.9530    -2.6560     6.8880 hn         1 SMK       0.406500
     46 HNAY        30.9790    -5.0900     9.7030 hn         1 SMK       0.341500
     47 HBI         33.5170    -4.2050     8.7350 h1         1 SMK       0.078700
     48 HBF         32.3070    -2.0790     9.3360 hc         1 SMK       0.093700
     49 HAS         31.3220    -3.1490    11.4830 hc         1 SMK       0.053200
     50 HASA        32.8440    -2.7460    12.2430 hc         1 SMK       0.053200
     51 HAQ         31.3610    -0.9610    12.7190 h1         1 SMK       0.029700
     52 HAQA        32.4550    -0.3240    11.4990 h1         1 SMK       0.029700
     53 HNAB        29.7540    -1.3150    10.9620 hn         1 SMK       0.391000
     54 HNAA        30.2560     0.2260    10.8790 hn         1 SMK       0.391000
     55 HAT         34.6530    -2.1230     8.9950 hc         1 SMK       0.047700
     56 HATA        34.2750    -1.0240    10.3030 hc         1 SMK       0.047700
     57 HAU         36.2910    -2.2680    10.8030 hc         1 SMK       0.060200
     58 HAUA        35.0620    -2.6930    11.9760 hc         1 SMK       0.060200
     59 HBG         35.7240    -4.3900     9.5410 h1         1 SMK       0.052700
     60 HAV         37.7030    -4.7040    10.8110 hc         1 SMK       0.063700
     61 HAVA        36.9080    -4.2280    12.3120 hc         1 SMK       0.063700
     62 HAW         36.6390    -6.8990    10.8610 hc         1 SMK       0.058200
     63 HAWA        36.9810    -6.6420    12.5750 hc         1 SMK       0.058200
     64 HBJ         34.4410    -7.1460    11.6660 h1         1 SMK       0.081700
     65 HNAX        34.4640    -7.9070    13.7640 hn         1 SMK       0.319500
     66 HBH         33.5040    -6.0310    15.7600 h1         1 SMK       0.084700
     67 HAM         34.3280    -5.7890    18.0560 ha         1 SMK       0.115250
     68 HAI         36.3320    -5.4120    19.4470 ha         1 SMK       0.113500
     69 HAG         38.5710    -6.0680    18.6040 ha         1 SMK       0.113500
     70 HAJ         38.7800    -7.0960    16.3580 ha         1 SMK       0.113500
     71 HAN         36.7750    -7.4640    14.9720 ha         1 SMK       0.115250
     72 HAO         31.4750    -7.1980    15.7240 ha         1 SMK       0.115250
     73 HAK         30.1650    -9.1920    16.3670 ha         1 SMK       0.113500
     74 HAH         31.3300   -11.2680    17.0620 ha         1 SMK       0.113500
     75 HAL         33.8070   -11.3260    17.1180 ha         1 SMK       0.113500
     76 HAP         35.1070    -9.3270    16.4960 ha         1 SMK       0.115250
@<TRIPOS>BOND
     1     1     2 1   
     2     1    38 1   
     3     1    39 1   
     4     1    40 1   
     5     2     3 1   
     6     2    41 1   
     7     2    42 1   
     8     3     4 1   
     9     3     5 1   
    10     3    43 1   
    11     4    44 1   
    12     4    45 1   
    13     5     6 2   
    14     5     7 1   
    15     7     8 1   
    16     7    46 1   
    17     8     9 1   
    18     8    12 1   
    19     8    47 1   
    20     9    10 2   
    21     9    11 1   
    22    11    18 1   
    23    11    21 1   
    24    12    13 1   
    25    12    16 1   
    26    12    48 1   
    27    13    14 1   
    28    13    49 1   
    29    13    50 1   
    30    14    15 1   
    31    14    51 1   
    32    14    52 1   
    33    15    53 1   
    34    15    54 1   
    35    16    17 1   
    36    16    55 1   
    37    16    56 1   
    38    17    18 1   
    39    17    57 1   
    40    17    58 1   
    41    18    19 1   
    42    18    59 1   
    43    19    20 1   
    44    19    60 1   
    45    19    61 1   
    46    20    21 1   
    47    20    62 1   
    48    20    63 1   
    49    21    22 1   
    50    21    64 1   
    51    22    23 2   
    52    22    24 1   
    53    24    25 1   
    54    24    65 1   
    55    25    26 1   
    56    25    32 1   
    57    25    66 1   
    58    26    27 ar  
    59    26    31 ar  
    60    27    28 ar  
    61    27    67 1   
    62    28    29 ar  
    63    28    68 1   
    64    29    30 ar  
    65    29    69 1   
    66    30    31 ar  
    67    30    70 1   
    68    31    71 1   
    69    32    33 ar  
    70    32    37 ar  
    71    33    34 ar  
    72    33    72 1   
    73    34    35 ar  
    74    34    73 1   
    75    35    36 ar  
    76    35    74 1   
    77    36    37 ar  
    78    36    75 1   
    79    37    76 1   
@<TRIPOS>SUBSTRUCTURE
     1 SMK         1 TEMP              0 ****  ****    0 ROOT
