@<TRIPOS>MOLECULE
SML
   18    18     1     0     0
SMALL
No Charge or Current Charge


@<TRIPOS>ATOM
      1 C32          0.0140    -1.6080     1.9810 c3         1 SML      -0.337100
      2 S33          0.0110     0.1220     1.5150 sy         1 SML       1.056500
      3 O34         -1.2700     0.6770     1.9730 o          1 SML      -0.523000
      4 O35          1.2910     0.6810     1.9710 o          1 SML      -0.523000
      5 C36          0.0100     0.0590    -0.2900 ca         1 SML      -0.266500
      6 C37         -1.2110     0.0260    -0.9970 ca         1 SML      -0.017000
      7 C38         -1.2070    -0.0320    -2.4020 ca         1 SML      -0.128000
      8 C39          0.0090    -0.0580    -3.1060 ca         1 SML      -0.056000
      9 C40          1.2260    -0.0280    -2.4030 ca         1 SML      -0.128000
     10 C41          1.2300     0.0290    -0.9980 ca         1 SML      -0.017000
     11 H321         0.9150    -2.0720     1.5670 h1         1 SML       0.102700
     12 H322         0.0140    -1.6670     3.0750 h1         1 SML       0.102700
     13 H323        -0.8870    -2.0750     1.5680 h1         1 SML       0.102700
     14 H371        -2.1620     0.0430    -0.4670 ha         1 SML       0.137000
     15 H381        -2.1490    -0.0560    -2.9460 ha         1 SML       0.121000
     16 H391         0.0090    -0.1030    -4.1930 ha         1 SML       0.118000
     17 H401         2.1670    -0.0510    -2.9480 ha         1 SML       0.121000
     18 H411         2.1820     0.0490    -0.4690 ha         1 SML       0.137000
@<TRIPOS>BOND
     1     1     2 1   
     2     1    11 1   
     3     1    12 1   
     4     1    13 1   
     5     2     3 2   
     6     2     4 2   
     7     2     5 1   
     8     5     6 ar  
     9     5    10 ar  
    10     6     7 ar  
    11     6    14 1   
    12     7     8 ar  
    13     7    15 1   
    14     8     9 ar  
    15     8    16 1   
    16     9    10 ar  
    17     9    17 1   
    18    10    18 1   
@<TRIPOS>SUBSTRUCTURE
     1 SML         1 TEMP              0 ****  ****    0 ROOT
