@<TRIPOS>MOLECULE
SMM
   54    55     1     0     0
SMALL
No Charge or Current Charge


@<TRIPOS>ATOM
      1 N           -2.6020     3.6650    -1.7620 n8         1 SMM      -0.308000
      2 CA          -3.4440     2.8700    -0.8460 c3         1 SMM      -0.026000
      3 CB          -2.7380     2.6780     0.5190 c3         1 SMM      -0.130000
      4 CG          -2.4040     3.9970     1.2770 c3         1 SMM      -0.400000
      5 SD          -1.6180     3.6960     2.9280 s4         1 SMM       1.196000
      6 CE          -1.6660     5.4520     3.4550 c3         1 SMM      -0.463000
      7 C5           1.1540     2.2320     2.5760 c2         1 SMM      -0.692000
      8 C4           0.9380     0.8640     3.2110 c5         1 SMM       0.076000
      9 O4          -0.4890     0.6500     3.2000 os         1 SMM      -0.273000
     10 C1          -0.8020    -0.5000     2.3810 c5         1 SMM       0.141000
     11 N9          -2.1880    -0.3600     1.8970 na         1 SMM      -0.182000
     12 C9          -2.6680    -0.8170     0.6550 c2         1 SMM       0.055000
     13 N3          -2.1030    -0.6680    -0.4950 n2         1 SMM      -0.260000
     14 C2          -2.7060    -1.1090    -1.5730 c2         1 SMM       0.056000
     15 N1          -3.8830    -1.6800    -1.4370 n2         1 SMM      -0.305000
     16 C6          -4.4580    -1.8180    -0.2810 c2         1 SMM       0.263000
     17 N6          -5.7030    -2.4090    -0.1340 nv         1 SMM      -0.348000
     18 C7          -3.8430    -1.3710     0.8280 c2         1 SMM      -0.236000
     19 N7          -4.2110    -1.3840     2.0530 n2         1 SMM      -0.141000
     20 C8          -3.2650    -0.8180     2.7340 c2         1 SMM      -0.038000
     21 C10          0.3670    -0.5240     1.3560 c5         1 SMM      -0.029000
     22 O2           0.4950    -1.7580     0.6480 oh         1 SMM      -0.335000
     23 C3           1.5580    -0.2550     2.3160 c5         1 SMM       0.006000
     24 O3           1.8830    -1.4070     3.0970 oh         1 SMM      -0.326000
     25 C           -4.8480     3.4490    -0.7090 c          1 SMM       0.265000
     26 O           -5.0800     4.6570    -0.7360 o          1 SMM      -0.356000
     27 OXT         -5.7900     2.4650    -0.5430 os         1 SMM      -0.251000
     28 CXT         -7.1710     2.8330    -0.3900 c3         1 SMM      -0.063000
     29 HN1         -2.5340     4.6210    -1.4110 hn         1 SMM       0.152500
     30 HN2         -3.0570     3.7340    -2.6720 hn         1 SMM       0.152500
     31 HA1         -3.5470     1.8750    -1.3020 h1         1 SMM       0.131000
     32 HB1         -1.8130     2.1060     0.3570 hc         1 SMM       0.115500
     33 HB2         -3.3820     2.0480     1.1490 hc         1 SMM       0.115500
     34 HG1         -3.3150     4.5750     1.4680 h1         1 SMM       0.128000
     35 HG2         -1.6940     4.6080     0.7080 h1         1 SMM       0.128000
     36 HD1         -2.9210     3.5810     3.4560 hs         1 SMM      -0.437000
     37 HE1         -0.7720     5.9460     3.0590 h1         1 SMM       0.128333
     38 HE2         -2.5800     5.9110     3.0670 h1         1 SMM       0.128333
     39 HE3         -1.6650     5.4620     4.5500 h1         1 SMM       0.128333
     40 H5'1         0.9740     2.4080     1.5160 ha         1 SMM       0.078500
     41 H5'2         1.6450     3.0360     3.1240 ha         1 SMM       0.078500
     42 H4           1.3100     0.8150     4.2470 h1         1 SMM       0.110000
     43 H1          -0.7730    -1.4080     2.9980 h2         1 SMM       0.134000
     44 H2          -2.2430    -1.0000    -2.5600 h5         1 SMM       0.184000
     45 HN61        -6.2630    -2.5310    -0.9660 hn         1 SMM       0.246500
     46 HN62        -6.1700    -2.2930     0.7540 hn         1 SMM       0.246500
     47 H8          -3.2520    -0.7060     3.8230 h5         1 SMM       0.203000
     48 H6           0.2580     0.3060     0.6450 h1         1 SMM       0.099000
     49 HO2         -0.3220    -1.8650     0.1230 ho         1 SMM       0.256000
     50 H3           2.4450     0.1020     1.7740 h1         1 SMM       0.103000
     51 HO3          1.9830    -2.1500     2.4720 ho         1 SMM       0.224000
     52 HXT1        -7.5290     3.3830    -1.2700 h1         1 SMM       0.089667
     53 HXT2        -7.3090     3.4690     0.4940 h1         1 SMM       0.089667
     54 HXT3        -7.7950     1.9390    -0.2680 h1         1 SMM       0.089667
@<TRIPOS>BOND
     1     1     2 1   
     2     1    29 1   
     3     1    30 1   
     4     2     3 1   
     5     2    25 1   
     6     2    31 1   
     7     3     4 1   
     8     3    32 1   
     9     3    33 1   
    10     4     5 1   
    11     4    34 1   
    12     4    35 1   
    13     5     6 1   
    14     5    36 1   
    15     6    37 1   
    16     6    38 1   
    17     6    39 1   
    18     7     8 1   
    19     7    40 1   
    20     7    41 1   
    21     8     9 1   
    22     8    23 1   
    23     8    42 1   
    24     9    10 1   
    25    10    11 1   
    26    10    21 1   
    27    10    43 1   
    28    11    12 1   
    29    11    20 1   
    30    12    13 1   
    31    12    18 1   
    32    13    14 1   
    33    14    15 1   
    34    14    44 1   
    35    15    16 1   
    36    16    17 1   
    37    16    18 1   
    38    17    45 1   
    39    17    46 1   
    40    18    19 1   
    41    19    20 1   
    42    20    47 1   
    43    21    22 1   
    44    21    23 1   
    45    21    48 1   
    46    22    49 1   
    47    23    24 1   
    48    23    50 1   
    49    24    51 1   
    50    25    26 1   
    51    25    27 1   
    52    27    28 1   
    53    28    52 1   
    54    28    53 1   
    55    28    54 1   
@<TRIPOS>SUBSTRUCTURE
     1 SMM         1 TEMP              0 ****  ****    0 ROOT
