@<TRIPOS>MOLECULE
SMM
   54    55     1     0     0
SMALL
bcc


@<TRIPOS>ATOM
      1 N           -3.1790     3.6710    -1.6850 n8         1 SMM      -0.308000
      2 CA          -4.2560     3.3780    -0.7710 c3         1 SMM      -0.026000
      3 CB          -3.7180     2.7920     0.5440 c3         1 SMM      -0.130000
      4 CG          -2.8230     3.7540     1.3050 c3         1 SMM      -0.400000
      5 SD          -2.3300     2.9480     2.8670 s4         1 SMM       1.196000
      6 CE          -1.4440     4.1030     3.9330 c3         1 SMM      -0.463000
      7 C5          -0.4930     2.4100     1.9480 c2         1 SMM      -0.692000
      8 C4           0.2090     1.3790     2.7930 c5         1 SMM       0.076000
      9 O4          -0.6840     0.3080     3.1770 os         1 SMM      -0.273000
     10 C1          -0.5000    -0.7930     2.3590 c5         1 SMM       0.141000
     11 N9          -1.7560    -1.1080     1.6790 na         1 SMM      -0.182000
     12 C9          -1.8980    -2.0200     0.6810 c2         1 SMM       0.055000
     13 N3          -0.9480    -2.7520     0.0910 n2         1 SMM      -0.260000
     14 C2          -1.4440    -3.5380    -0.8500 c2         1 SMM       0.056000
     15 N1          -2.7090    -3.6570    -1.2350 n2         1 SMM      -0.305000
     16 C6          -3.6510    -2.9140    -0.6400 c2         1 SMM       0.263000
     17 N6          -4.9200    -3.0380    -1.0280 nv         1 SMM      -0.348000
     18 C7          -3.2510    -2.0360     0.3840 c2         1 SMM      -0.236000
     19 N7          -3.9300    -1.1550     1.1840 n2         1 SMM      -0.141000
     20 C8          -3.0090    -0.6300     1.9420 c2         1 SMM      -0.038000
     21 C10          0.6130    -0.4400     1.3500 c5         1 SMM      -0.029000
     22 O2           1.4420    -1.5060     1.0090 oh         1 SMM      -0.335000
     23 C3           1.3630     0.6490     2.1100 c5         1 SMM       0.006000
     24 O3           2.2030     0.0980     3.0960 oh         1 SMM      -0.326000
     25 C           -5.1600     4.5730    -0.4840 c2         1 SMM       0.265000
     26 O           -4.9160     5.7080    -0.8100 o          1 SMM      -0.356000
     27 OXT         -6.2460     4.2180     0.1850 os         1 SMM      -0.251000
     28 CXT         -7.1620     5.2470     0.5620 c3         1 SMM      -0.063000
     29 HN1         -2.6860     4.5100    -1.4050 hn         1 SMM       0.152500
     30 HN2         -3.5490     3.8640    -2.6060 hn         1 SMM       0.152500
     31 HA1         -4.8810     2.6030    -1.2250 h1         1 SMM       0.131000
     32 HB1         -3.1600     1.8880     0.2910 hc         1 SMM       0.115500
     33 HB2         -4.5540     2.4840     1.1750 hc         1 SMM       0.115500
     34 HG1         -3.3380     4.6740     1.5800 h1         1 SMM       0.128000
     35 HG2         -1.9190     4.0090     0.7570 h1         1 SMM       0.128000
     36 HD1         -3.5970     3.5320     3.4260 hs         1 SMM      -0.437000
     37 HE1         -0.4720     3.6900     4.1870 h1         1 SMM       0.128333
     38 HE2         -1.3070     5.0450     3.4070 h1         1 SMM       0.128333
     39 HE3         -2.0450     4.2680     4.8250 h1         1 SMM       0.128333
     40 H5'1        -0.7560     2.0100     0.9620 ha         1 SMM       0.078500
     41 H5'2         0.1600     3.2730     1.7930 ha         1 SMM       0.078500
     42 H4           0.5620     1.8340     3.7250 h1         1 SMM       0.110000
     43 H1          -0.2190    -1.6720     2.9510 h2         1 SMM       0.134000
     44 H2          -0.7310    -4.1650    -1.3750 h5         1 SMM       0.184000
     45 HN61        -5.1590    -3.6350    -1.8010 hn         1 SMM       0.246500
     46 HN62        -5.6360    -2.4400    -0.6520 hn         1 SMM       0.246500
     47 H8          -3.1800     0.1170     2.7010 h5         1 SMM       0.203000
     48 H6           0.1540     0.0150     0.4620 h1         1 SMM       0.099000
     49 HO2          0.8740    -2.1640     0.5650 ho         1 SMM       0.256000
     50 H3           1.9120     1.3150     1.4330 h1         1 SMM       0.103000
     51 HO3          2.7450    -0.5850     2.6850 ho         1 SMM       0.224000
     52 HXT1        -7.5920     5.7350    -0.3120 h1         1 SMM       0.089667
     53 HXT2        -6.6840     5.9950     1.1940 h1         1 SMM       0.089667
     54 HXT3        -7.9500     4.7540     1.1240 h1         1 SMM       0.089667
@<TRIPOS>BOND
     1     1     2 1   
     2     1    29 1   
     3     1    30 1   
     4     2     3 1   
     5     2    25 1   
     6     2    31 1   
     7     3     4 1   
     8     3    32 1   
     9     3    33 1   
    10     4     5 1   
    11     4    34 1   
    12     4    35 1   
    13     5     6 1   
    14     5    36 1   
    15     6    37 1   
    16     6    38 1   
    17     6    39 1   
    18     7     8 1   
    19     7    40 1   
    20     7    41 1   
    21     8     9 1   
    22     8    23 1   
    23     8    42 1   
    24     9    10 1   
    25    10    11 1   
    26    10    21 1   
    27    10    43 1   
    28    11    12 1   
    29    11    20 1   
    30    12    13 1   
    31    12    18 1   
    32    13    14 1   
    33    14    15 1   
    34    14    44 1   
    35    15    16 1   
    36    16    17 1   
    37    16    18 1   
    38    17    45 1   
    39    17    46 1   
    40    18    19 1   
    41    19    20 1   
    42    20    47 1   
    43    21    22 1   
    44    21    23 1   
    45    21    48 1   
    46    22    49 1   
    47    23    24 1   
    48    23    50 1   
    49    24    51 1   
    50    25    26 1   
    51    25    27 1   
    52    27    28 1   
    53    28    52 1   
    54    28    53 1   
    55    28    54 1   
@<TRIPOS>SUBSTRUCTURE
     1 SMM         1 TEMP              0 ****  ****    0 ROOT
