@<TRIPOS>MOLECULE
SMN
   18    18     1     0     0
SMALL
abcg2


@<TRIPOS>ATOM
      1 C1           0.2140     0.3760    -0.4220 ca         1 SMN      -0.027300
      2 C2           1.1410    -0.4450    -1.0600 ca         1 SMN      -0.098500
      3 C3           0.9420    -0.8470    -2.3750 ca         1 SMN      -0.127500
      4 C4          -0.1840    -0.4320    -3.0740 ca         1 SMN      -0.147000
      5 C5          -1.1100     0.3920    -2.4460 ca         1 SMN      -0.127500
      6 C6          -0.9110     0.7900    -1.1310 ca         1 SMN      -0.098500
      7 C7           0.3960     0.7840     1.0190 c3         1 SMN       0.043600
      8 C10         -0.3700    -0.2110     1.9400 c          1 SMN       0.699000
      9 O8           1.7430     0.8200     1.3960 oh         1 SMN      -0.704000
     10 O11          0.3590    -0.8140     2.7580 o          1 SMN      -0.709500
     11 O12         -1.5920    -0.3110     1.7840 o          1 SMN      -0.709500
     12 H2           2.0280    -0.7700    -0.5320 ha         1 SMN       0.116000
     13 H3           1.6730    -1.4850    -2.8560 ha         1 SMN       0.087500
     14 H4          -0.3360    -0.7420    -4.1000 ha         1 SMN       0.085000
     15 H5          -1.9870     0.7300    -2.9830 ha         1 SMN       0.087500
     16 H6          -1.6350     1.4380    -0.6520 ha         1 SMN       0.116000
     17 H7          -0.0620     1.7740     1.1580 h1         1 SMN       0.038700
     18 HO8          1.7780     0.1490     2.1060 ho         1 SMN       0.475000
@<TRIPOS>BOND
     1     1     2 ar  
     2     1     6 ar  
     3     1     7 1   
     4     2     3 ar  
     5     2    12 1   
     6     3     4 ar  
     7     3    13 1   
     8     4     5 ar  
     9     4    14 1   
    10     5     6 ar  
    11     5    15 1   
    12     6    16 1   
    13     7     8 1   
    14     7     9 1   
    15     7    17 1   
    16     8    10 1   
    17     8    11 1   
    18     9    18 1   
@<TRIPOS>SUBSTRUCTURE
     1 SMN         1 TEMP              0 ****  ****    0 ROOT
