@<TRIPOS>MOLECULE
SMN
   18    18     1     0     0
SMALL
No Charge or Current Charge


@<TRIPOS>ATOM
      1 C1           0.0890     0.3580    -0.4030 ca         1 SMN      -0.027300
      2 C2           0.9060    -0.6690    -0.9230 ca         1 SMN      -0.098500
      3 C3           0.7990    -1.0480    -2.2730 ca         1 SMN      -0.127500
      4 C4          -0.1230    -0.4050    -3.1140 ca         1 SMN      -0.147000
      5 C5          -0.9390     0.6190    -2.6050 ca         1 SMN      -0.127500
      6 C6          -0.8330     0.9990    -1.2560 ca         1 SMN      -0.098500
      7 C7           0.1960     0.7730     1.0660 c3         1 SMN       0.043600
      8 C10         -0.1360    -0.4330     2.0190 c          1 SMN       0.699000
      9 O8           1.5080     1.3390     1.3310 oh         1 SMN      -0.704000
     10 O11          0.7990    -0.9720     2.6020 o          1 SMN      -0.709500
     11 O12         -1.3050    -0.7650     2.1650 o          1 SMN      -0.709500
     12 H2           1.6240    -1.1720    -0.2800 ha         1 SMN       0.116000
     13 H3           1.4320    -1.8410    -2.6650 ha         1 SMN       0.087500
     14 H4          -0.2060    -0.6990    -4.1580 ha         1 SMN       0.085000
     15 H5          -1.6530     1.1190    -3.2550 ha         1 SMN       0.087500
     16 H6          -1.4690     1.7940    -0.8720 ha         1 SMN       0.116000
     17 H7          -0.5680     1.5370     1.2640 h1         1 SMN       0.038700
     18 HO8          1.9660     0.6610     1.8870 ho         1 SMN       0.475000
@<TRIPOS>BOND
     1     1     2 ar  
     2     1     6 ar  
     3     1     7 1   
     4     2     3 ar  
     5     2    12 1   
     6     3     4 ar  
     7     3    13 1   
     8     4     5 ar  
     9     4    14 1   
    10     5     6 ar  
    11     5    15 1   
    12     6    16 1   
    13     7     8 1   
    14     7     9 1   
    15     7    17 1   
    16     8    10 1   
    17     8    11 1   
    18     9    18 1   
@<TRIPOS>SUBSTRUCTURE
     1 SMN         1 TEMP              0 ****  ****    0 ROOT
