@<TRIPOS>MOLECULE
SMR
   79    83     1     0     0
SMALL
abcg2


@<TRIPOS>ATOM
      1 C1           4.2080    -1.3390    -0.6580 c6         1 SMR       0.187000
      2 C2           4.9050    -2.6340    -0.2620 c6         1 SMR      -0.065400
      3 C3           3.9870    -3.5540     0.5340 c6         1 SMR      -0.072400
      4 C4           2.6690    -3.7710    -0.1920 c6         1 SMR       0.180800
      5 C5           2.8810    -1.6800    -1.3420 c6         1 SMR       0.147800
      6 O6           3.9490    -0.6390     0.5620 os         1 SMR      -0.336100
      7 C7           3.5270     0.6460     0.4660 ca         1 SMR       0.107100
      8 C8           3.7160     1.4090    -0.6680 ca         1 SMR      -0.102300
      9 C9           4.4020     0.8510    -1.8790 c6         1 SMR      -0.021100
     10 C10          5.0840    -0.4750    -1.5560 c6         1 SMR      -0.103400
     11 C11          2.8900     1.1670     1.6180 ca         1 SMR      -0.086000
     12 C12          2.4260     2.4560     1.6690 ca         1 SMR      -0.099000
     13 C13          2.5910     3.2320     0.5160 ca         1 SMR      -0.066200
     14 C14          3.2200     2.7260    -0.6300 ca         1 SMR      -0.197900
     15 N15          2.2430     4.5080     0.2200 na         1 SMR      -0.059400
     16 N16          2.5990     4.8560    -1.0150 nc         1 SMR      -0.512100
     17 C17          3.1860     3.8100    -1.5480 cd         1 SMR       0.337800
     18 C19         -0.0680    -1.2930    -0.5810 c3         1 SMR       0.161300
     19 C20         -1.5600    -1.4420    -0.8090 c3         1 SMR       0.217800
     20 O21          0.1740    -0.9800     0.7630 oh         1 SMR      -0.654000
     21 N22         -2.2430    -0.1530    -0.8660 n3         1 SMR      -0.765500
     22 C23         -2.2220     0.5520    -2.1400 c3         1 SMR       0.215800
     23 C24         -3.1250    -0.0530    -3.1970 c3         1 SMR       0.131600
     24 C25         -2.6190     0.1750     1.7700 ca         1 SMR      -0.241500
     25 C26         -1.6530     1.1880     1.9300 ca         1 SMR       0.038700
     26 C27         -1.0270     1.3010     3.1660 ca         1 SMR      -0.144500
     27 C28         -1.3210     0.4400     4.2050 ca         1 SMR      -0.053000
     28 C29         -2.2590    -0.5570     4.0210 ca         1 SMR      -0.144500
     29 C30         -2.9320    -0.7180     2.8100 ca         1 SMR       0.038700
     30 C31         -3.9290    -1.8470     2.7590 c3         1 SMR      -0.065800
     31 C32         -1.1990     2.1360     0.8560 c3         1 SMR      -0.065800
     32 O33         -4.4550     0.0660    -2.7760 os         1 SMR      -0.458000
     33 C34         -6.7140    -0.6650    -2.7640 c3         1 SMR      -0.094100
     34 C35         -5.3320    -0.8790    -3.3390 c3         1 SMR       0.169600
     35 S36         -3.4770     0.1030     0.1960 sy         1 SMR       1.180600
     36 O37         -4.0390     1.4190    -0.0730 o          1 SMR      -0.547000
     37 O38         -4.3990    -1.0230     0.2010 o          1 SMR      -0.547000
     38 N39          2.0440    -2.4950    -0.4890 n3         1 SMR      -0.746600
     39 H2           5.2130    -3.1370    -1.1840 hc         1 SMR       0.051700
     40 H2A          5.8210    -2.4110     0.2920 hc         1 SMR       0.051700
     41 H3           4.4760    -4.5170     0.6950 hc         1 SMR       0.055700
     42 H3A          3.7880    -3.1300     1.5210 hc         1 SMR       0.055700
     43 H4           2.8430    -4.3580    -1.1100 h1         1 SMR       0.032700
     44 H4A          1.9920    -4.3540     0.4350 h1         1 SMR       0.032700
     45 H5           2.3490    -0.7650    -1.6060 h1         1 SMR       0.042200
     46 H5A          3.1110    -2.1860    -2.2970 h1         1 SMR       0.042200
     47 H9           3.6740     0.7210    -2.6860 hc         1 SMR       0.054200
     48 H9A          5.1380     1.5640    -2.2580 hc         1 SMR       0.054200
     49 H10          6.0330    -0.2940    -1.0440 hc         1 SMR       0.057200
     50 H10A         5.3200    -1.0150    -2.4750 hc         1 SMR       0.057200
     51 H11          2.7750     0.5180     2.4770 ha         1 SMR       0.131000
     52 H12          1.9480     2.8450     2.5580 ha         1 SMR       0.123000
     53 H17          3.5660     3.8500    -2.5570 h4         1 SMR       0.046800
     54 H18          0.1930    -3.4230    -0.4400 h1         1 SMR       0.041200
     55 H18A         0.5870    -2.7730    -2.0300 h1         1 SMR       0.041200
     56 H19          0.2930    -0.4820    -1.2350 h1         1 SMR       0.032700
     57 H20         -1.7360    -1.9890    -1.7400 h1         1 SMR       0.055200
     58 H20A        -1.9810    -2.0640    -0.0170 h1         1 SMR       0.055200
     59 HO21         1.1120    -1.1890     0.8960 ho         1 SMR       0.473000
     60 H23         -2.4690     1.6010    -1.9820 h1         1 SMR       0.071200
     61 H23A        -1.1920     0.5350    -2.5030 h1         1 SMR       0.071200
     62 H24         -2.9510     0.4650    -4.1510 h1         1 SMR       0.027700
     63 H24A        -2.8550    -1.1060    -3.3620 h1         1 SMR       0.027700
     64 H27         -0.2860     2.0770     3.3050 ha         1 SMR       0.106000
     65 H28         -0.8200     0.5440     5.1590 ha         1 SMR       0.109000
     66 H29         -2.4870    -1.2340     4.8350 ha         1 SMR       0.106000
     67 H31         -3.6860    -2.5850     1.9970 hc         1 SMR       0.056367
     68 H31A        -3.9310    -2.3570     3.7210 hc         1 SMR       0.056367
     69 H31B        -4.9430    -1.5020     2.5670 hc         1 SMR       0.056367
     70 H32         -2.0150     2.5910     0.3040 hc         1 SMR       0.056367
     71 H32A        -0.6070     2.9350     1.2980 hc         1 SMR       0.056367
     72 H32B        -0.5560     1.6170     0.1470 hc         1 SMR       0.056367
     73 H34         -6.7010    -0.7720    -1.6800 hc         1 SMR       0.048367
     74 H34A        -7.0990     0.3250    -3.0100 hc         1 SMR       0.048367
     75 H34B        -7.4050    -1.4030    -3.1720 hc         1 SMR       0.048367
     76 H35         -5.3590    -0.7860    -4.4340 h1         1 SMR       0.016200
     77 H35A        -4.9870    -1.8980    -3.1170 h1         1 SMR       0.016200
     78 HN15         1.7820     5.1780     0.8140 hn         1 SMR       0.377000
     79 C18          0.6720    -2.5820    -0.9500 c3         1 SMR       0.134800
@<TRIPOS>BOND
     1     1     2 1   
     2     1     5 1   
     3     1     6 1   
     4     1    10 1   
     5     2     3 1   
     6     2    39 1   
     7     2    40 1   
     8     3     4 1   
     9     3    41 1   
    10     3    42 1   
    11     4    38 1   
    12     4    43 1   
    13     4    44 1   
    14     5    38 1   
    15     5    45 1   
    16     5    46 1   
    17     6     7 1   
    18     7     8 ar  
    19     7    11 ar  
    20     8     9 1   
    21     8    14 ar  
    22     9    10 1   
    23     9    47 1   
    24     9    48 1   
    25    10    49 1   
    26    10    50 1   
    27    11    12 ar  
    28    11    51 1   
    29    12    13 ar  
    30    12    52 1   
    31    13    14 ar  
    32    13    15 1   
    33    14    17 1   
    34    15    16 1   
    35    15    78 1   
    36    16    17 2   
    37    17    53 1   
    38    18    19 1   
    39    18    20 1   
    40    18    56 1   
    41    18    79 1   
    42    19    21 1   
    43    19    57 1   
    44    19    58 1   
    45    20    59 1   
    46    21    22 1   
    47    21    35 1   
    48    22    23 1   
    49    22    60 1   
    50    22    61 1   
    51    23    32 1   
    52    23    62 1   
    53    23    63 1   
    54    24    25 ar  
    55    24    29 ar  
    56    24    35 1   
    57    25    26 ar  
    58    25    31 1   
    59    26    27 ar  
    60    26    64 1   
    61    27    28 ar  
    62    27    65 1   
    63    28    29 ar  
    64    28    66 1   
    65    29    30 1   
    66    30    67 1   
    67    30    68 1   
    68    30    69 1   
    69    31    70 1   
    70    31    71 1   
    71    31    72 1   
    72    32    34 1   
    73    33    34 1   
    74    33    73 1   
    75    33    74 1   
    76    33    75 1   
    77    34    76 1   
    78    34    77 1   
    79    35    36 2   
    80    35    37 2   
    81    38    79 1   
    82    54    79 1   
    83    55    79 1   
@<TRIPOS>SUBSTRUCTURE
     1 SMR         1 TEMP              0 ****  ****    0 ROOT
