@<TRIPOS>MOLECULE
SMR
   79    83     1     0     0
SMALL
No Charge or Current Charge


@<TRIPOS>ATOM
      1 C1           4.4030    -1.3320    -0.8680 c6         1 SMR       0.187000
      2 C2           5.0890    -2.6050    -0.2970 c6         1 SMR      -0.065400
      3 C3           4.3270    -3.1600     0.9320 c6         1 SMR      -0.072400
      4 C4           2.8390    -3.4160     0.5960 c6         1 SMR       0.180800
      5 C5           2.8870    -1.6540    -1.1220 c6         1 SMR       0.147800
      6 O6           4.5250    -0.2610     0.1030 os         1 SMR      -0.336100
      7 C7           4.2630     1.0420    -0.2710 ca         1 SMR       0.107100
      8 C8           4.2510     1.4240    -1.6390 ca         1 SMR      -0.102300
      9 C9           4.5290     0.4120    -2.7490 c6         1 SMR      -0.021100
     10 C10          5.1150    -0.9010    -2.1830 c6         1 SMR      -0.103400
     11 C11          4.0280     2.0040     0.7410 ca         1 SMR      -0.086000
     12 C12          3.7570     3.3490     0.4060 ca         1 SMR      -0.099000
     13 C13          3.7370     3.6870    -0.9540 ca         1 SMR      -0.066200
     14 C14          3.9730     2.7690    -1.9270 ca         1 SMR      -0.197900
     15 N15          3.5050     4.9100    -1.5560 na         1 SMR      -0.059400
     16 N16          3.5910     4.7890    -2.9560 nc         1 SMR      -0.512100
     17 C17          3.8740     3.4930    -3.1740 cd         1 SMR       0.337800
     18 C19         -0.0360    -1.0110    -0.2600 c3         1 SMR       0.161300
     19 C20         -1.5600    -1.1230     0.0610 c3         1 SMR       0.217800
     20 O21          0.6440    -0.0910     0.6060 oh         1 SMR      -0.654000
     21 N22         -2.3570     0.1330    -0.0370 n3         1 SMR      -0.765500
     22 C23         -2.2370     0.8840    -1.3220 c3         1 SMR       0.215800
     23 C24         -2.7270     0.1730    -2.6170 c3         1 SMR       0.131600
     24 C25         -3.6050    -0.3980     2.3620 ca         1 SMR      -0.241500
     25 C26         -2.9820     0.5800     3.2020 ca         1 SMR       0.038700
     26 C27         -2.7270     0.2840     4.5550 ca         1 SMR      -0.144500
     27 C28         -3.0610    -0.9570     5.0970 ca         1 SMR      -0.053000
     28 C29         -3.6570    -1.9250     4.2870 ca         1 SMR      -0.144500
     29 C30         -3.9340    -1.6720     2.9290 ca         1 SMR       0.038700
     30 C31         -4.5800    -2.8200     2.1550 c3         1 SMR      -0.065800
     31 C32         -2.5540     1.9710     2.7240 c3         1 SMR      -0.065800
     32 O33         -4.1480     0.3610    -2.7630 os         1 SMR      -0.458000
     33 C34         -6.2320    -0.0120    -3.8880 c3         1 SMR      -0.094100
     34 C35         -4.7230    -0.2990    -3.9000 c3         1 SMR       0.169600
     35 S36         -3.9340     0.0000     0.5980 sy         1 SMR       1.180600
     36 O37         -4.5010     1.3540     0.5540 o          1 SMR      -0.547000
     37 O38         -4.5800    -1.1080    -0.1110 o          1 SMR      -0.547000
     38 N39          2.1800    -2.1800     0.0950 n3         1 SMR      -0.746600
     39 H2           5.1350    -3.3820    -1.0730 hc         1 SMR       0.051700
     40 H2A          6.1290    -2.3820    -0.0200 hc         1 SMR       0.051700
     41 H3           4.7940    -4.0930     1.2730 hc         1 SMR       0.055700
     42 H3A          4.3960    -2.4510     1.7680 hc         1 SMR       0.055700
     43 H4           2.7700    -4.2160    -0.1550 h1         1 SMR       0.032700
     44 H4A          2.3330    -3.7760     1.5030 h1         1 SMR       0.032700
     45 H5           2.3910    -0.7430    -1.4820 h1         1 SMR       0.042200
     46 H5A          2.8160    -2.3890    -1.9370 h1         1 SMR       0.042200
     47 H9           3.5960     0.2030    -3.2900 hc         1 SMR       0.054200
     48 H9A          5.2230     0.8370    -3.4860 hc         1 SMR       0.054200
     49 H10          6.1850    -0.7550    -1.9810 hc         1 SMR       0.057200
     50 H10A         5.0500    -1.6950    -2.9400 hc         1 SMR       0.057200
     51 H11          4.0500     1.7000     1.7850 ha         1 SMR       0.131000
     52 H12          3.5710     4.0930     1.1770 ha         1 SMR       0.123000
     53 H17          3.9920     3.1400    -4.1910 h4         1 SMR       0.046800
     54 H18          0.2900    -2.8780     0.7680 h1         1 SMR       0.041200
     55 H18A         0.5110    -2.9910    -0.9810 h1         1 SMR       0.041200
     56 H19          0.0830    -0.6870    -1.3010 h1         1 SMR       0.032700
     57 H20         -1.9870    -1.8860    -0.6040 h1         1 SMR       0.055200
     58 H20A        -1.6350    -1.5290     1.0780 h1         1 SMR       0.055200
     59 HO21         1.5190    -0.5490     0.7050 ho         1 SMR       0.473000
     60 H23         -2.7520     1.8520    -1.2500 h1         1 SMR       0.071200
     61 H23A        -1.1830     1.1410    -1.4830 h1         1 SMR       0.071200
     62 H24         -2.2080     0.6200    -3.4750 h1         1 SMR       0.027700
     63 H24A        -2.4670    -0.8920    -2.5870 h1         1 SMR       0.027700
     64 H27         -2.2590     1.0250     5.1990 ha         1 SMR       0.106000
     65 H28         -2.8560    -1.1700     6.1440 ha         1 SMR       0.109000
     66 H29         -3.9050    -2.8880     4.7270 ha         1 SMR       0.106000
     67 H31         -3.9510    -3.1430     1.3170 hc         1 SMR       0.056367
     68 H31A        -4.7330    -3.7050     2.7840 hc         1 SMR       0.056367
     69 H31B        -5.5690    -2.5390     1.7730 hc         1 SMR       0.056367
     70 H32         -3.4220     2.6110     2.5290 hc         1 SMR       0.056367
     71 H32A        -1.9490     2.4890     3.4760 hc         1 SMR       0.056367
     72 H32B        -1.9390     1.9290     1.8190 hc         1 SMR       0.056367
     73 H34         -6.6890    -0.3930    -2.9660 hc         1 SMR       0.048367
     74 H34A        -6.4210     1.0650    -3.9550 hc         1 SMR       0.048367
     75 H34B        -6.7170    -0.5010    -4.7400 hc         1 SMR       0.048367
     76 H35         -4.2840     0.0780    -4.8330 h1         1 SMR       0.016200
     77 H35A        -4.5550    -1.3830    -3.8460 h1         1 SMR       0.016200
     78 HN15         3.2980     5.7940    -1.0920 hn         1 SMR       0.377000
     79 C18          0.7120    -2.3600    -0.1040 c3         1 SMR       0.134800
@<TRIPOS>BOND
     1     1     2 1   
     2     1     5 1   
     3     1     6 1   
     4     1    10 1   
     5     2     3 1   
     6     2    39 1   
     7     2    40 1   
     8     3     4 1   
     9     3    41 1   
    10     3    42 1   
    11     4    38 1   
    12     4    43 1   
    13     4    44 1   
    14     5    38 1   
    15     5    45 1   
    16     5    46 1   
    17     6     7 1   
    18     7     8 ar  
    19     7    11 ar  
    20     8     9 1   
    21     8    14 ar  
    22     9    10 1   
    23     9    47 1   
    24     9    48 1   
    25    10    49 1   
    26    10    50 1   
    27    11    12 ar  
    28    11    51 1   
    29    12    13 ar  
    30    12    52 1   
    31    13    14 ar  
    32    13    15 1   
    33    14    17 1   
    34    15    16 1   
    35    15    78 1   
    36    16    17 2   
    37    17    53 1   
    38    18    19 1   
    39    18    20 1   
    40    18    56 1   
    41    18    79 1   
    42    19    21 1   
    43    19    57 1   
    44    19    58 1   
    45    20    59 1   
    46    21    22 1   
    47    21    35 1   
    48    22    23 1   
    49    22    60 1   
    50    22    61 1   
    51    23    32 1   
    52    23    62 1   
    53    23    63 1   
    54    24    25 ar  
    55    24    29 ar  
    56    24    35 1   
    57    25    26 ar  
    58    25    31 1   
    59    26    27 ar  
    60    26    64 1   
    61    27    28 ar  
    62    27    65 1   
    63    28    29 ar  
    64    28    66 1   
    65    29    30 1   
    66    30    67 1   
    67    30    68 1   
    68    30    69 1   
    69    31    70 1   
    70    31    71 1   
    71    31    72 1   
    72    32    34 1   
    73    33    34 1   
    74    33    73 1   
    75    33    74 1   
    76    33    75 1   
    77    34    76 1   
    78    34    77 1   
    79    35    36 2   
    80    35    37 2   
    81    38    79 1   
    82    54    79 1   
    83    55    79 1   
@<TRIPOS>SUBSTRUCTURE
     1 SMR         1 TEMP              0 ****  ****    0 ROOT
