@<TRIPOS>MOLECULE
SMS
   37    39     1     0     0
SMALL
No Charge or Current Charge


@<TRIPOS>ATOM
      1 S2          -1.1730    -0.5470    -3.9300 s6         1 SMS       1.401800
      2 N1          -2.1170     0.7200    -4.2440 n8         1 SMS      -1.059100
      3 O10         -0.2500    -0.6300    -5.0560 o          1 SMS      -0.552000
      4 O9          -2.0330    -1.6560    -3.5220 o          1 SMS      -0.552000
      5 O8          -0.4220     0.1240    -2.6520 os         1 SMS      -0.534700
      6 C1          -0.6670    -0.4780    -1.3580 c3         1 SMS       0.201600
      7 C2           0.0890     0.3080    -0.2270 c5         1 SMS       0.381000
      8 C3           0.6320    -0.6260     0.9160 c5         1 SMS       0.092300
      9 C4           1.0000     0.1340     2.2610 c5         1 SMS       0.133300
     10 C5          -0.0380     1.2490     2.5730 c5         1 SMS       0.133300
     11 C6          -0.4060     2.1390     1.3800 c6         1 SMS       0.162600
     12 O3          -0.8000     1.3520     0.2460 os         1 SMS      -0.401000
     13 O5          -1.1670     0.5360     3.1170 os         1 SMS      -0.552700
     14 S1          -0.7370    -0.7940     3.9720 s6         1 SMS       1.515400
     15 O7          -1.4910    -1.9540     3.4830 o          1 SMS      -0.526500
     16 O6          -0.6650    -0.4630     5.4000 o          1 SMS      -0.526500
     17 O4           0.7790    -0.8130     3.3360 os         1 SMS      -0.543700
     18 O2           1.9090    -1.0450     0.3570 os         1 SMS      -0.452000
     19 C7           2.3520    -0.0570    -0.6100 c5         1 SMS       0.397000
     20 C9           3.6320     0.6450    -0.1140 c3         1 SMS      -0.108100
     21 C8           2.5990    -0.7520    -1.9680 c3         1 SMS      -0.108100
     22 O1           1.2990     0.9230    -0.7100 os         1 SMS      -0.475000
     23 HN11        -1.7600     0.9460    -5.1670 hn         1 SMS       0.490000
     24 HN12        -1.6460     1.3830    -3.6340 hn         1 SMS       0.490000
     25 HC11        -0.3320    -1.5240    -1.3470 h1         1 SMS       0.078200
     26 HC12        -1.7380    -0.4760    -1.1160 h1         1 SMS       0.078200
     27 HC3         -0.0130    -1.4990     1.0820 h1         1 SMS       0.115700
     28 HC4          2.0340     0.5010     2.2800 h1         1 SMS       0.121700
     29 HC5          0.3600     1.9040     3.3620 h1         1 SMS       0.093700
     30 HC61        -1.2290     2.8140     1.6530 h1         1 SMS       0.084200
     31 HC62         0.4570     2.7600     1.0990 h1         1 SMS       0.084200
     32 HC91         4.3850    -0.0860     0.1990 hc         1 SMS       0.055700
     33 HC92         4.0720     1.2600    -0.9070 hc         1 SMS       0.055700
     34 HC93         3.4280     1.3070     0.7350 hc         1 SMS       0.055700
     35 HC81         2.6230    -0.0190    -2.7830 hc         1 SMS       0.055700
     36 HC82         3.5590    -1.2800    -1.9680 hc         1 SMS       0.055700
     37 HC83         1.8260    -1.4910    -2.1980 hc         1 SMS       0.055700
@<TRIPOS>BOND
     1     1     2 1   
     2     1     3 2   
     3     1     4 2   
     4     1     5 1   
     5     2    23 1   
     6     2    24 1   
     7     5     6 1   
     8     6     7 1   
     9     6    25 1   
    10     6    26 1   
    11     7     8 1   
    12     7    12 1   
    13     7    22 1   
    14     8     9 1   
    15     8    18 1   
    16     8    27 1   
    17     9    10 1   
    18     9    17 1   
    19     9    28 1   
    20    10    11 1   
    21    10    13 1   
    22    10    29 1   
    23    11    12 1   
    24    11    30 1   
    25    11    31 1   
    26    13    14 1   
    27    14    15 2   
    28    14    16 2   
    29    14    17 1   
    30    18    19 1   
    31    19    20 1   
    32    19    21 1   
    33    19    22 1   
    34    20    32 1   
    35    20    33 1   
    36    20    34 1   
    37    21    35 1   
    38    21    36 1   
    39    21    37 1   
@<TRIPOS>SUBSTRUCTURE
     1 SMS         1 TEMP              0 ****  ****    0 ROOT
