@<TRIPOS>MOLECULE
SMS
   37    39     1     0     0
SMALL
abcg2


@<TRIPOS>ATOM
      1 S2          -1.5290    -0.0520    -3.7500 s6         1 SMS       1.401800
      2 N1          -2.8990     0.2960    -2.9300 n8         1 SMS      -1.059100
      3 O10         -1.2360     0.8800    -4.8120 o          1 SMS      -0.552000
      4 O9          -1.5460    -1.4730    -4.0110 o          1 SMS      -0.552000
      5 O8          -0.4140     0.2890    -2.6590 os         1 SMS      -0.534700
      6 C1          -0.3380    -0.5230    -1.4880 c3         1 SMS       0.201600
      7 C2           0.4360     0.2670    -0.4410 c5         1 SMS       0.381000
      8 C3           0.7880    -0.6590     0.7440 c5         1 SMS       0.092300
      9 C4           0.7960     0.0210     2.1280 c5         1 SMS       0.133300
     10 C5           0.0740     1.3670     2.2260 c5         1 SMS       0.133300
     11 C6           0.1230     2.1510     0.9440 c6         1 SMS       0.162600
     12 O3          -0.3340     1.3700    -0.1340 os         1 SMS      -0.401000
     13 O5          -1.2960     1.0230     2.5150 os         1 SMS      -0.552700
     14 S1          -1.4260    -0.4030     3.2220 s6         1 SMS       1.515400
     15 O7          -2.2350    -1.2450     2.3840 o          1 SMS      -0.526500
     16 O6          -1.7420    -0.2690     4.6140 o          1 SMS      -0.526500
     17 O4           0.1240    -0.7980     3.0990 os         1 SMS      -0.543700
     18 O2           2.0530    -1.1410     0.3940 os         1 SMS      -0.452000
     19 C7           2.7050    -0.2200    -0.4740 c5         1 SMS       0.397000
     20 C9           3.7770     0.5660     0.2610 c3         1 SMS      -0.108100
     21 C8           3.2770    -0.9870    -1.6500 c3         1 SMS      -0.108100
     22 O1           1.6910     0.6720    -0.9060 os         1 SMS      -0.475000
     23 HN11        -3.6950    -0.2510    -3.2390 hn         1 SMS       0.490000
     24 HN12        -3.1150     1.2850    -2.8800 hn         1 SMS       0.490000
     25 HC11         0.1730    -1.4610    -1.7160 h1         1 SMS       0.078200
     26 HC12        -1.3340    -0.7540    -1.1000 h1         1 SMS       0.078200
     27 HC3          0.1000    -1.5100     0.7780 h1         1 SMS       0.115700
     28 HC4          1.8210     0.1220     2.4830 h1         1 SMS       0.121700
     29 HC5          0.4740     1.9600     3.0520 h1         1 SMS       0.093700
     30 HC61        -0.5270     3.0230     1.0030 h1         1 SMS       0.084200
     31 HC62         1.1440     2.5180     0.7950 h1         1 SMS       0.084200
     32 HC91         4.5410    -0.1080     0.6480 hc         1 SMS       0.055700
     33 HC92         4.2620     1.2680    -0.4160 hc         1 SMS       0.055700
     34 HC93         3.3690     1.1340     1.0990 hc         1 SMS       0.055700
     35 HC81         3.7830    -0.3070    -2.3340 hc         1 SMS       0.055700
     36 HC82         4.0080    -1.7200    -1.3060 hc         1 SMS       0.055700
     37 HC83         2.4990    -1.5150    -2.2020 hc         1 SMS       0.055700
@<TRIPOS>BOND
     1     1     2 1   
     2     1     3 2   
     3     1     4 2   
     4     1     5 1   
     5     2    23 1   
     6     2    24 1   
     7     5     6 1   
     8     6     7 1   
     9     6    25 1   
    10     6    26 1   
    11     7     8 1   
    12     7    12 1   
    13     7    22 1   
    14     8     9 1   
    15     8    18 1   
    16     8    27 1   
    17     9    10 1   
    18     9    17 1   
    19     9    28 1   
    20    10    11 1   
    21    10    13 1   
    22    10    29 1   
    23    11    12 1   
    24    11    30 1   
    25    11    31 1   
    26    13    14 1   
    27    14    15 2   
    28    14    16 2   
    29    14    17 1   
    30    18    19 1   
    31    19    20 1   
    32    19    21 1   
    33    19    22 1   
    34    20    32 1   
    35    20    33 1   
    36    20    34 1   
    37    21    35 1   
    38    21    36 1   
    39    21    37 1   
@<TRIPOS>SUBSTRUCTURE
     1 SMS         1 TEMP              0 ****  ****    0 ROOT
