@<TRIPOS>MOLECULE
SMV
   13    13     1     0     0
SMALL
bcc


@<TRIPOS>ATOM
      1 C4          51.1870   117.0810    32.0950 cc         1 SMV      -0.135100
      2 N           52.5610   113.3510    29.4030 nt         1 SMV      -0.560000
      3 C           51.7040   114.3580    29.3830 cs         1 SMV       0.516000
      4 C1          51.7080   115.2570    30.5310 cc         1 SMV      -0.153700
      5 C2          52.5140   115.2520    31.6430 cd         1 SMV      -0.115000
      6 C3          52.2140   116.3000    32.5410 cd         1 SMV      -0.162000
      7 S           50.6560   114.6120    28.1070 s          1 SMV      -0.594400
      8 S1          50.5790   116.5570    30.5900 ss         1 SMV       0.088200
      9 H1          50.7580   117.9430    32.5820 h4         1 SMV       0.171000
     10 H2          52.6060   112.7160    28.6230 hn         1 SMV       0.325500
     11 H3          53.1890   113.1760    30.1710 hn         1 SMV       0.325500
     12 H4          53.3000   114.5320    31.8230 ha         1 SMV       0.142000
     13 H5          52.7350   116.4650    33.4730 ha         1 SMV       0.154000
@<TRIPOS>BOND
     1     1     6 2   
     2     1     8 1   
     3     1     9 1   
     4     2     3 1   
     5     2    10 1   
     6     2    11 1   
     7     3     4 1   
     8     3     7 2   
     9     4     5 2   
    10     4     8 1   
    11     5     6 1   
    12     5    12 1   
    13     6    13 1   
@<TRIPOS>SUBSTRUCTURE
     1 SMV         1 TEMP              0 ****  ****    0 ROOT
