@<TRIPOS>MOLECULE
SMV
   13    13     1     0     0
SMALL
No Charge or Current Charge


@<TRIPOS>ATOM
      1 C4          51.2080   117.1120    32.1410 cc         1 SMV      -0.262000
      2 N           52.5830   113.3850    29.4320 nt         1 SMV      -0.493000
      3 C           51.6760   114.3750    29.3730 cs         1 SMV       0.449000
      4 C1          51.6620   115.2800    30.4900 cc         1 SMV      -0.298600
      5 C2          52.4800   115.2270    31.5990 cd         1 SMV      -0.097000
      6 C3          52.2180   116.2670    32.5300 cd         1 SMV      -0.144000
      7 S           50.6780   114.4560    28.0400 s          1 SMV      -0.594400
      8 S1          50.5400   116.6350    30.5810 ss         1 SMV       0.378000
      9 H1          50.8040   117.9780    32.6480 h4         1 SMV       0.153000
     10 H2          52.6440   112.7150    28.6790 hn         1 SMV       0.325500
     11 H3          53.2020   113.3070    30.2240 hn         1 SMV       0.325500
     12 H4          53.2500   114.4790    31.7660 ha         1 SMV       0.124000
     13 H5          52.7650   116.3830    33.4620 ha         1 SMV       0.136000
@<TRIPOS>BOND
     1     1     6 2   
     2     1     8 1   
     3     1     9 1   
     4     2     3 1   
     5     2    10 1   
     6     2    11 1   
     7     3     4 1   
     8     3     7 2   
     9     4     5 2   
    10     4     8 1   
    11     5     6 1   
    12     5    12 1   
    13     6    13 1   
@<TRIPOS>SUBSTRUCTURE
     1 SMV         1 TEMP              0 ****  ****    0 ROOT
