@<TRIPOS>MOLECULE
SMX
   48    51     1     0     0
SMALL
No Charge or Current Charge


@<TRIPOS>ATOM
      1 C            1.1150     1.9940     1.2140 c          1 SMX       0.578000
      2 N            3.3320     1.3160     0.0010 ns         1 SMX      -0.456900
      3 O            1.2280     2.6940     2.2110 o          1 SMX      -0.454000
      4 CA           1.9500     1.7670    -0.0940 cy         1 SMX       0.004700
      5 CB           0.8120     0.7550    -0.4910 cy         1 SMX       0.185700
      6 NBD          0.1440     1.0970     0.7630 nj         1 SMX      -0.283000
      7 NBE         -6.5780    -1.0410    -1.5400 na         1 SMX      -0.082700
      8 NAN         -7.2590    -2.2120     0.0970 nc         1 SMX      -0.051000
      9 NAO         -5.9450    -1.9010     0.3880 nc         1 SMX      -0.403000
     10 NAP         -7.6560    -1.7100    -1.0500 nd         1 SMX      -0.234800
     11 CAA         -6.5900    -0.3250    -2.8240 c3         1 SMX       0.072900
     12 OAB         -1.6860     3.1160     1.5890 o          1 SMX      -0.676500
     13 OAC          3.7570     1.3100    -2.2410 o          1 SMX      -0.613100
     14 OAE         -3.3480     1.7790     1.7060 o          1 SMX      -0.676500
     15 OAF          6.3260     0.3110    -1.9970 oh         1 SMX      -0.650000
     16 CAG          5.4230    -3.0860     1.6100 ca         1 SMX      -0.101000
     17 CAH          6.1730    -1.9820     2.0480 ca         1 SMX      -0.105000
     18 CAI          4.7260    -3.0190     0.3920 ca         1 SMX      -0.105000
     19 CAJ          6.2240    -0.8110     1.2720 ca         1 SMX      -0.087000
     20 CAK          4.7780    -1.8500    -0.3860 ca         1 SMX      -0.087000
     21 CAL         -3.0590    -0.9620     0.6470 c3         1 SMX       0.166800
     22 CAM         -0.6870    -1.4480    -0.0280 c6         1 SMX       0.134800
     23 SAR         -3.9600    -0.4760    -0.8920 ss         1 SMX      -0.365300
     24 SAS          1.1070    -1.0460    -0.2160 ss         1 SMX      -0.476000
     25 CAT         -2.1740     2.0030     1.4430 c          1 SMX       0.722200
     26 CAU          4.1400     1.0920    -1.0950 c          1 SMX       0.570100
     27 CAV         -1.6440    -0.4040     0.5670 c2         1 SMX      -0.263400
     28 CAX         -1.2800     0.8840     0.8860 ce         1 SMX       0.046400
     29 CAY          5.5250    -0.7350     0.0490 ca         1 SMX      -0.117300
     30 CAZ         -5.5620    -1.1770    -0.6370 cd         1 SMX       0.500800
     31 CBA          5.5710     0.5460    -0.7860 c3         1 SMX       0.145600
     32 H1           3.7270     1.0770     0.9040 hn         1 SMX       0.336500
     33 H2           1.9300     2.6690    -0.7140 h1         1 SMX       0.110700
     34 H3           0.2430     0.9440    -1.4090 h2         1 SMX       0.099700
     35 H4          -6.3570     0.7340    -2.6560 h1         1 SMX       0.062367
     36 H5          -5.8360    -0.7590    -3.4930 h1         1 SMX       0.062367
     37 H6          -7.5780    -0.4070    -3.2930 h1         1 SMX       0.062367
     38 H10          4.1450    -3.8720     0.0510 ha         1 SMX       0.111000
     39 H11          6.8080     0.0370     1.6230 ha         1 SMX       0.113000
     40 H12          4.2320    -1.8100    -1.3260 ha         1 SMX       0.113000
     41 H13         -3.5940    -0.6010     1.5330 h1         1 SMX       0.098700
     42 H14         -3.0440    -2.0590     0.7130 h1         1 SMX       0.098700
     43 H15         -1.0460    -1.6980    -1.0370 h1         1 SMX       0.061700
     44 H16         -0.7410    -2.3760     0.5590 h1         1 SMX       0.061700
     45 H17          5.7430     0.6100    -2.7340 ho         1 SMX       0.471000
     46 H18          6.0620     1.3300    -0.1920 h1         1 SMX       0.074700
     47 H8           5.3830    -3.9910     2.2120 ha         1 SMX       0.109000
     48 H9           6.7140    -2.0320     2.9910 ha         1 SMX       0.111000
@<TRIPOS>BOND
     1     1     3 2   
     2     1     4 1   
     3     1     6 1   
     4     2     4 1   
     5     2    26 1   
     6     2    32 1   
     7     4     5 1   
     8     4    33 1   
     9     5     6 1   
    10     5    24 1   
    11     5    34 1   
    12     6    28 1   
    13     7    10 1   
    14     7    11 1   
    15     7    30 1   
    16     8     9 1   
    17     8    10 2   
    18     9    30 2   
    19    11    35 1   
    20    11    36 1   
    21    11    37 1   
    22    12    25 1   
    23    13    26 2   
    24    14    25 1   
    25    15    31 1   
    26    15    45 1   
    27    16    17 ar  
    28    16    18 ar  
    29    16    47 1   
    30    17    19 ar  
    31    17    48 1   
    32    18    20 ar  
    33    18    38 1   
    34    19    29 ar  
    35    19    39 1   
    36    20    29 ar  
    37    20    40 1   
    38    21    23 1   
    39    21    27 1   
    40    21    41 1   
    41    21    42 1   
    42    22    24 1   
    43    22    27 1   
    44    22    43 1   
    45    22    44 1   
    46    23    30 1   
    47    25    28 1   
    48    26    31 1   
    49    27    28 2   
    50    29    31 1   
    51    31    46 1   
@<TRIPOS>SUBSTRUCTURE
     1 SMX         1 TEMP              0 ****  ****    0 ROOT
