@<TRIPOS>MOLECULE
SMX
   48    51     1     0     0
SMALL
abcg2


@<TRIPOS>ATOM
      1 C            1.1450     2.5540     0.6100 c          1 SMX       0.578000
      2 N            3.3800     1.5640     0.1000 ns         1 SMX      -0.456900
      3 O            1.1790     3.2950     1.5540 o          1 SMX      -0.454000
      4 CA           2.1630     2.0780    -0.4340 cy         1 SMX       0.004700
      5 CB           1.0550     1.0770    -0.8510 cy         1 SMX       0.185700
      6 NBD          0.1800     1.7380     0.0920 nj         1 SMX      -0.283000
      7 NBE         -6.1410    -1.6670    -1.0080 na         1 SMX      -0.082700
      8 NAN         -6.4870    -2.6120     0.8220 nc         1 SMX      -0.051000
      9 NAO         -5.3100    -1.9950     0.9420 nc         1 SMX      -0.403000
     10 NAP         -6.9950    -2.4250    -0.3270 nd         1 SMX      -0.234800
     11 CAA         -6.3860    -1.2370    -2.3660 c3         1 SMX       0.072900
     12 OAB         -1.9330     3.3870     0.7330 o          1 SMX      -0.676500
     13 OAC          4.5330     1.6360    -1.8450 o          1 SMX      -0.613100
     14 OAE         -2.4410     1.9500     2.3660 o          1 SMX      -0.676500
     15 OAF          6.7240     0.5860    -0.8090 oh         1 SMX      -0.650000
     16 CAG          4.0690    -3.4120     0.6970 ca         1 SMX      -0.101000
     17 CAH          4.2150    -2.5300     1.7560 ca         1 SMX      -0.105000
     18 CAI          4.4460    -3.0220    -0.5830 ca         1 SMX      -0.105000
     19 CAJ          4.7320    -1.2590     1.5360 ca         1 SMX      -0.087000
     20 CAK          4.9570    -1.7520    -0.8030 ca         1 SMX      -0.087000
     21 CAL         -2.6660    -0.5960     0.7690 c3         1 SMX       0.166800
     22 CAM         -0.4570    -1.0130    -0.3800 c6         1 SMX       0.134800
     23 SAR         -3.7540    -0.4370    -0.7020 ss         1 SMX      -0.365300
     24 SAS          1.3230    -0.6360    -0.3570 ss         1 SMX      -0.476000
     25 CAT         -1.8840     2.2920     1.3110 c          1 SMX       0.722200
     26 CAU          4.4530     1.3180    -0.6710 c          1 SMX       0.570100
     27 CAV         -1.3330    -0.0410     0.3730 c2         1 SMX      -0.263400
     28 CAX         -1.0170     1.2460     0.6000 ce         1 SMX       0.046400
     29 CAY          5.0980    -0.8600     0.2560 ca         1 SMX      -0.117300
     30 CAZ         -5.1000    -1.4040    -0.2120 cd         1 SMX       0.500800
     31 CBA          5.5930     0.5490     0.0030 c3         1 SMX       0.145600
     32 H1           3.3780     1.2150     1.0470 hn         1 SMX       0.336500
     33 H2           2.3610     2.8160    -1.2110 h1         1 SMX       0.110700
     34 H3           0.7120     1.1410    -1.8840 h2         1 SMX       0.099700
     35 H4          -6.5450    -0.1610    -2.3990 h1         1 SMX       0.062367
     36 H5          -5.5380    -1.5010    -2.9960 h1         1 SMX       0.062367
     37 H6          -7.2720    -1.7450    -2.7300 h1         1 SMX       0.062367
     38 H10          4.3370    -3.7080    -1.4120 ha         1 SMX       0.111000
     39 H11          4.8540    -0.5780     2.3700 ha         1 SMX       0.113000
     40 H12          5.2400    -1.4570    -1.8060 ha         1 SMX       0.113000
     41 H13         -3.1100    -0.0510     1.5950 h1         1 SMX       0.098700
     42 H14         -2.5960    -1.6530     1.0230 h1         1 SMX       0.098700
     43 H15         -0.7860    -1.1150    -1.4180 h1         1 SMX       0.061700
     44 H16         -0.5490    -2.0030     0.0710 h1         1 SMX       0.061700
     45 H17          6.4460     0.9110    -1.6770 ho         1 SMX       0.471000
     46 H18          5.8160     1.0240     0.9670 h1         1 SMX       0.074700
     47 H8           3.6690    -4.4040     0.8660 ha         1 SMX       0.109000
     48 H9           3.9340    -2.8300     2.7570 ha         1 SMX       0.111000
@<TRIPOS>BOND
     1     1     3 2   
     2     1     4 1   
     3     1     6 1   
     4     2     4 1   
     5     2    26 1   
     6     2    32 1   
     7     4     5 1   
     8     4    33 1   
     9     5     6 1   
    10     5    24 1   
    11     5    34 1   
    12     6    28 1   
    13     7    10 1   
    14     7    11 1   
    15     7    30 1   
    16     8     9 1   
    17     8    10 2   
    18     9    30 2   
    19    11    35 1   
    20    11    36 1   
    21    11    37 1   
    22    12    25 1   
    23    13    26 2   
    24    14    25 1   
    25    15    31 1   
    26    15    45 1   
    27    16    17 ar  
    28    16    18 ar  
    29    16    47 1   
    30    17    19 ar  
    31    17    48 1   
    32    18    20 ar  
    33    18    38 1   
    34    19    29 ar  
    35    19    39 1   
    36    20    29 ar  
    37    20    40 1   
    38    21    23 1   
    39    21    27 1   
    40    21    41 1   
    41    21    42 1   
    42    22    24 1   
    43    22    27 1   
    44    22    43 1   
    45    22    44 1   
    46    23    30 1   
    47    25    28 1   
    48    26    31 1   
    49    27    28 2   
    50    29    31 1   
    51    31    46 1   
@<TRIPOS>SUBSTRUCTURE
     1 SMX         1 TEMP              0 ****  ****    0 ROOT
