@<TRIPOS>MOLECULE
SMY
   56    60     1     0     0
SMALL
No Charge or Current Charge


@<TRIPOS>ATOM
      1 N1          10.8730    34.4530    36.6910 nb         1 SMY      -0.265000
      2 C2          12.1870    34.3100    36.9570 ca         1 SMY       0.162900
      3 N3          12.8350    33.1550    37.2120 nb         1 SMY      -0.198000
      4 C4          12.0830    32.0380    37.2010 ca         1 SMY       0.135300
      5 C5          10.7130    32.0720    36.9370 ca         1 SMY      -0.245300
      6 C6          10.1290    33.3290    36.6690 ca         1 SMY       0.409900
      7 C7          12.6480    30.6680    37.4890 c5         1 SMY       0.016300
      8 S8          11.3180    29.4040    37.1320 ss         1 SMY      -0.463000
      9 C9          10.0070    30.7320    37.0230 c5         1 SMY       0.173600
     10 C10          9.0870    30.6180    38.2540 c3         1 SMY      -0.081100
     11 N11          8.7630    33.5200    36.3780 nh         1 SMY      -0.788300
     12 C12          7.8980    34.3960    37.2240 c6         1 SMY       0.198300
     13 C13          6.8900    35.1990    36.3570 c6         1 SMY       0.073000
     14 N14          6.1090    34.3190    35.4380 n          1 SMY      -0.403800
     15 C15          7.0100    33.5050    34.5680 c6         1 SMY       0.073000
     16 C16          8.0250    32.6730    35.3980 c6         1 SMY       0.198300
     17 C17          4.7360    34.0320    35.6680 c          1 SMY       0.618100
     18 O18          4.1860    34.4610    36.6810 o          1 SMY      -0.623100
     19 C19          3.8810    33.2820    34.5670 c3         1 SMY       0.090500
     20 C20          3.3590    31.9250    35.1030 c3         1 SMY      -0.032200
     21 C21          4.4370    31.0230    35.6460 cc         1 SMY      -0.148400
     22 C22          4.6710    30.7100    36.9810 cd         1 SMY      -0.141100
     23 N23          5.7650    29.8160    37.0770 na         1 SMY      -0.236700
     24 C24          6.1960    29.6030    35.7810 ca         1 SMY      -0.053200
     25 C25          5.4260    30.3030    34.8940 ca         1 SMY      -0.101800
     26 C26          7.2720    28.8140    35.3540 ca         1 SMY      -0.129000
     27 C27          7.5460    28.7550    33.9710 ca         1 SMY      -0.092000
     28 C28          6.7410    29.4710    33.0530 ca         1 SMY      -0.138000
     29 C29          5.6610    30.2550    33.5120 ca         1 SMY      -0.071000
     30 N30          2.7290    34.0800    34.0110 n8         1 SMY      -0.986200
     31 H2          12.7860    35.2190    36.9690 h5         1 SMY       0.051100
     32 H7          13.5320    30.4700    36.8690 h1         1 SMY       0.094200
     33 H7A         12.9510    30.5980    38.5420 h1         1 SMY       0.094200
     34 H9           9.4130    30.5410    36.1210 h1         1 SMY       0.079700
     35 H10          8.6320    29.6230    38.3110 hc         1 SMY       0.046033
     36 H10A         9.6470    30.7860    39.1810 hc         1 SMY       0.046033
     37 H10B         8.2760    31.3540    38.2140 hc         1 SMY       0.046033
     38 H12          7.3370    33.7810    37.9440 h1         1 SMY       0.069950
     39 H12A         8.5030    35.1040    37.8080 h1         1 SMY       0.069950
     40 H13          6.2260    35.7770    37.0140 h1         1 SMY       0.070200
     41 H13A         7.4500    35.9270    35.7540 h1         1 SMY       0.070200
     42 H15          6.4610    32.8190    33.9180 h1         1 SMY       0.070200
     43 H15A         7.5690    34.1850    33.9100 h1         1 SMY       0.070200
     44 H16          8.7220    32.1820    34.7030 h1         1 SMY       0.069950
     45 H16A         7.4800    31.8850    35.9320 h1         1 SMY       0.069950
     46 H19          4.5270    33.0700    33.7110 h1         1 SMY       0.069700
     47 H20          2.6170    32.1110    35.8890 hc         1 SMY       0.055700
     48 H20A         2.8270    31.4000    34.2990 hc         1 SMY       0.055700
     49 H22          4.1350    31.0500    37.8640 h4         1 SMY       0.222000
     50 HN23         6.1420    29.3990    37.9220 hn         1 SMY       0.354000
     51 H26          7.8840    28.2650    36.0660 ha         1 SMY       0.116000
     52 H27          8.3760    28.1530    33.6090 ha         1 SMY       0.116000
     53 H28          6.9550    29.4170    31.9880 ha         1 SMY       0.115000
     54 H29          5.0370    30.8090    32.8150 ha         1 SMY       0.114000
     55 HN30         2.1440    33.4770    33.4200 hn         1 SMY       0.407000
     56 HN3A         2.1040    34.3450    34.7830 hn         1 SMY       0.407000
@<TRIPOS>BOND
     1     1     2 ar  
     2     1     6 ar  
     3     2     3 ar  
     4     2    31 1   
     5     3     4 ar  
     6     4     5 ar  
     7     4     7 1   
     8     5     6 ar  
     9     5     9 1   
    10     6    11 1   
    11     7     8 1   
    12     7    32 1   
    13     7    33 1   
    14     8     9 1   
    15     9    10 1   
    16     9    34 1   
    17    10    35 1   
    18    10    36 1   
    19    10    37 1   
    20    11    12 1   
    21    11    16 1   
    22    12    13 1   
    23    12    38 1   
    24    12    39 1   
    25    13    14 1   
    26    13    40 1   
    27    13    41 1   
    28    14    15 1   
    29    14    17 1   
    30    15    16 1   
    31    15    42 1   
    32    15    43 1   
    33    16    44 1   
    34    16    45 1   
    35    17    18 2   
    36    17    19 1   
    37    19    20 1   
    38    19    30 1   
    39    19    46 1   
    40    20    21 1   
    41    20    47 1   
    42    20    48 1   
    43    21    22 2   
    44    21    25 1   
    45    22    23 1   
    46    22    49 1   
    47    23    24 1   
    48    23    50 1   
    49    24    25 ar  
    50    24    26 ar  
    51    25    29 ar  
    52    26    27 ar  
    53    26    51 1   
    54    27    28 ar  
    55    27    52 1   
    56    28    29 ar  
    57    28    53 1   
    58    29    54 1   
    59    30    55 1   
    60    30    56 1   
@<TRIPOS>SUBSTRUCTURE
     1 SMY         1 TEMP              0 ****  ****    0 ROOT
