@<TRIPOS>MOLECULE
SMY
   56    60     1     0     0
SMALL
abcg2


@<TRIPOS>ATOM
      1 N1          10.2940    34.4280    37.4920 nb         1 SMY      -0.265000
      2 C2          11.6000    34.6080    37.6140 ca         1 SMY       0.162900
      3 N3          12.5590    33.7380    37.3140 nb         1 SMY      -0.198000
      4 C4          12.1140    32.5380    36.9060 ca         1 SMY       0.135300
      5 C5          10.7800    32.2090    36.7490 ca         1 SMY      -0.245300
      6 C6           9.8430    33.2460    37.0230 ca         1 SMY       0.409900
      7 C7          13.1160    31.4520    36.6490 c5         1 SMY       0.016300
      8 S8          12.1520    29.9490    36.2690 ss         1 SMY      -0.463000
      9 C9          10.4900    30.7500    36.4850 c5         1 SMY       0.173600
     10 C10          9.6970    30.0810    37.6080 c3         1 SMY      -0.081100
     11 N11          8.4930    33.1080    36.9000 nh         1 SMY      -0.788300
     12 C12          7.5720    34.0440    37.5390 c6         1 SMY       0.198300
     13 C13          6.9240    34.9790    36.5230 c6         1 SMY       0.073000
     14 N14          6.2720    34.1950    35.4730 n          1 SMY      -0.403800
     15 C15          7.1960    33.2770    34.8170 c6         1 SMY       0.073000
     16 C16          7.8480    32.3430    35.8400 c6         1 SMY       0.198300
     17 C17          4.9310    34.2620    35.3130 c          1 SMY       0.618100
     18 O18          4.2270    35.0020    36.0100 o          1 SMY      -0.623100
     19 C19          4.2380    33.4170    34.2420 c3         1 SMY       0.090500
     20 C20          3.4490    32.2730    34.9270 c3         1 SMY      -0.032200
     21 C21          4.2940    31.2780    35.6550 cc         1 SMY      -0.148400
     22 C22          4.4340    31.1510    37.0140 cd         1 SMY      -0.141100
     23 N23          5.3170    30.1330    37.3050 na         1 SMY      -0.236700
     24 C24          5.7750    29.5800    36.1330 ca         1 SMY      -0.053200
     25 C25          5.1490    30.2810    35.0660 ca         1 SMY      -0.101800
     26 C26          6.6980    28.5590    35.9110 ca         1 SMY      -0.129000
     27 C27          6.9970    28.2400    34.5960 ca         1 SMY      -0.092000
     28 C28          6.3880    28.9190    33.5230 ca         1 SMY      -0.138000
     29 C29          5.4690    29.9310    33.7460 ca         1 SMY      -0.071000
     30 N30          3.3890    34.3260    33.4660 n8         1 SMY      -0.986200
     31 H2          11.9190    35.5750    37.9920 h5         1 SMY       0.051100
     32 H7          13.7580    31.7120    35.8060 h1         1 SMY       0.094200
     33 H7A         13.7470    31.2990    37.5250 h1         1 SMY       0.094200
     34 H9           9.9790    30.5910    35.5380 h1         1 SMY       0.079700
     35 H10          9.5900    29.0140    37.4110 hc         1 SMY       0.046033
     36 H10A        10.2090    30.2130    38.5620 hc         1 SMY       0.046033
     37 H10B         8.6970    30.5100    37.6860 hc         1 SMY       0.046033
     38 H12          6.7910    33.4520    38.0250 h1         1 SMY       0.069950
     39 H12A         8.1030    34.6160    38.2920 h1         1 SMY       0.069950
     40 H13          6.1810    35.6070    37.0030 h1         1 SMY       0.070200
     41 H13A         7.6870    35.6110    36.0600 h1         1 SMY       0.070200
     42 H15          6.6910    32.6740    34.0730 h1         1 SMY       0.070200
     43 H15A         7.9700    33.8650    34.3150 h1         1 SMY       0.070200
     44 H16          8.5650    31.7250    35.3160 h1         1 SMY       0.069950
     45 H16A         7.0890    31.7000    36.2790 h1         1 SMY       0.069950
     46 H19          4.9520    32.9820    33.5500 h1         1 SMY       0.069700
     47 H20          2.7300    32.7270    35.6120 hc         1 SMY       0.055700
     48 H20A         2.8760    31.7730    34.1400 hc         1 SMY       0.055700
     49 H22          3.9670    31.7140    37.8060 h4         1 SMY       0.222000
     50 HN23         5.5940    29.8520    38.2310 hn         1 SMY       0.354000
     51 H26          7.1720    28.0450    36.7360 ha         1 SMY       0.116000
     52 H27          7.7140    27.4560    34.3890 ha         1 SMY       0.116000
     53 H28          6.6460    28.6440    32.5080 ha         1 SMY       0.115000
     54 H29          5.0110    30.4520    32.9140 ha         1 SMY       0.114000
     55 HN30         2.8400    33.7850    32.8060 hn         1 SMY       0.407000
     56 HN3A         2.7320    34.7760    34.0970 hn         1 SMY       0.407000
@<TRIPOS>BOND
     1     1     2 ar  
     2     1     6 ar  
     3     2     3 ar  
     4     2    31 1   
     5     3     4 ar  
     6     4     5 ar  
     7     4     7 1   
     8     5     6 ar  
     9     5     9 1   
    10     6    11 1   
    11     7     8 1   
    12     7    32 1   
    13     7    33 1   
    14     8     9 1   
    15     9    10 1   
    16     9    34 1   
    17    10    35 1   
    18    10    36 1   
    19    10    37 1   
    20    11    12 1   
    21    11    16 1   
    22    12    13 1   
    23    12    38 1   
    24    12    39 1   
    25    13    14 1   
    26    13    40 1   
    27    13    41 1   
    28    14    15 1   
    29    14    17 1   
    30    15    16 1   
    31    15    42 1   
    32    15    43 1   
    33    16    44 1   
    34    16    45 1   
    35    17    18 2   
    36    17    19 1   
    37    19    20 1   
    38    19    30 1   
    39    19    46 1   
    40    20    21 1   
    41    20    47 1   
    42    20    48 1   
    43    21    22 2   
    44    21    25 1   
    45    22    23 1   
    46    22    49 1   
    47    23    24 1   
    48    23    50 1   
    49    24    25 ar  
    50    24    26 ar  
    51    25    29 ar  
    52    26    27 ar  
    53    26    51 1   
    54    27    28 ar  
    55    27    52 1   
    56    28    29 ar  
    57    28    53 1   
    58    29    54 1   
    59    30    55 1   
    60    30    56 1   
@<TRIPOS>SUBSTRUCTURE
     1 SMY         1 TEMP              0 ****  ****    0 ROOT
