@<TRIPOS>MOLECULE
SMZ
   27    26     1     0     0
SMALL
bcc


@<TRIPOS>ATOM
      1 C8           5.7320     0.3830    -0.0660 c3         1 SMZ      -0.010000
      2 S1           4.3150    -0.6950     0.2040 ss         1 SMZ      -0.389300
      3 C2          -3.2110    -0.5390     0.3170 c3         1 SMZ       0.013500
      4 C4          -0.6610    -0.4140     0.1500 c3         1 SMZ      -0.088400
      5 C5           0.5180     0.4890    -0.1720 c3         1 SMZ       0.211800
      6 C1          -4.4920     0.3020     0.0860 c          1 SMZ       0.902600
      7 N2          -3.1930    -1.8380    -0.3390 n8         1 SMZ      -0.891800
      8 C3          -1.9900     0.2840    -0.1020 c3         1 SMZ      -0.048400
      9 N6           1.7690    -0.2130     0.0350 nu         1 SMZ      -0.829200
     10 C7           2.9560     0.3700    -0.2670 c2         1 SMZ       0.708100
     11 N8           3.0270     1.5000    -0.8440 n2         1 SMZ      -0.856100
     12 H8           5.8500     0.6390    -1.1170 h1         1 SMZ       0.063033
     13 H8A          5.6670     1.2870     0.5370 h1         1 SMZ       0.063033
     14 H8B          6.6070    -0.1820     0.2470 h1         1 SMZ       0.063033
     15 H2          -3.1250    -0.7180     1.3960 h1         1 SMZ       0.034700
     16 H4          -0.6020    -1.3250    -0.4480 hc         1 SMZ       0.041700
     17 H4A         -0.6080    -0.7230     1.2010 hc         1 SMZ       0.041700
     18 H5           0.4680     0.8140    -1.2130 h1         1 SMZ       0.047700
     19 H5A          0.4750     1.3970     0.4420 h1         1 SMZ       0.047700
     20 HN2         -3.9470    -2.4000     0.0370 hn         1 SMZ       0.326800
     21 HN2A        -3.4490    -1.7000    -1.3110 hn         1 SMZ       0.326800
     22 H3          -2.0720     0.5310    -1.1680 hc         1 SMZ       0.041700
     23 H3A         -2.0150     1.2340     0.4370 hc         1 SMZ       0.041700
     24 HN6          1.7670    -0.9180     0.7550 hn         1 SMZ       0.432800
     25 HN8          3.9740     1.7730    -1.0720 hn         1 SMZ       0.382400
     26 O1          -5.2710    -0.0670    -0.8150 o          1 SMZ      -0.839300
     27 O2          -4.6270     1.3050     0.8180 o          1 SMZ      -0.839300
@<TRIPOS>BOND
     1     1     2 1   
     2     1    12 1   
     3     1    13 1   
     4     1    14 1   
     5     2    10 1   
     6     3     6 1   
     7     3     7 1   
     8     3     8 1   
     9     3    15 1   
    10     4     5 1   
    11     4     8 1   
    12     4    16 1   
    13     4    17 1   
    14     5     9 1   
    15     5    18 1   
    16     5    19 1   
    17     6    26 1   
    18     6    27 1   
    19     7    20 1   
    20     7    21 1   
    21     8    22 1   
    22     8    23 1   
    23     9    10 1   
    24     9    24 1   
    25    10    11 2   
    26    11    25 1   
@<TRIPOS>SUBSTRUCTURE
     1 SMZ         1 TEMP              0 ****  ****    0 ROOT
