@<TRIPOS>MOLECULE
SMZ
   27    26     1     0     0
SMALL
No Charge or Current Charge


@<TRIPOS>ATOM
      1 C8           5.8860     0.3810    -0.1540 c3         1 SMZ       0.037900
      2 S1           4.4130    -0.6220     0.3560 ss         1 SMZ      -0.437200
      3 C2          -3.2750    -0.5430     0.3000 c3         1 SMZ       0.013500
      4 C4          -0.6740    -0.3430     0.2090 c3         1 SMZ      -0.088400
      5 C5           0.5190     0.5180    -0.2540 c3         1 SMZ       0.211800
      6 C1          -4.5910     0.3280     0.1540 c          1 SMZ       0.692000
      7 N2          -3.3140    -1.9130    -0.3330 n8         1 SMZ      -1.002200
      8 C3          -2.0420     0.2630    -0.1930 c3         1 SMZ      -0.048400
      9 N6           1.7900    -0.0930     0.1620 nu         1 SMZ      -0.884400
     10 C7           3.0320     0.3930    -0.0980 c2         1 SMZ       0.708100
     11 N8           3.1520     1.5330    -0.6370 n2         1 SMZ      -0.856100
     12 H8           5.8600     0.5680    -1.2350 h1         1 SMZ       0.063033
     13 H8A          5.8960     1.3380     0.3840 h1         1 SMZ       0.063033
     14 H8B          6.8040    -0.1690     0.0880 h1         1 SMZ       0.063033
     15 H2          -3.1390    -0.7050     1.3790 h1         1 SMZ       0.034700
     16 H4          -0.5770    -1.3470    -0.2210 hc         1 SMZ       0.041700
     17 H4A         -0.6380    -0.4510     1.3000 hc         1 SMZ       0.041700
     18 H5           0.4900     0.6160    -1.3480 h1         1 SMZ       0.047700
     19 H5A          0.4270     1.5240     0.1790 h1         1 SMZ       0.047700
     20 HN2         -4.1060    -2.4380     0.0570 hn         1 SMZ       0.382000
     21 HN2A        -3.5750    -1.8020    -1.3210 hn         1 SMZ       0.382000
     22 H3          -2.0880     0.3720    -1.2840 hc         1 SMZ       0.041700
     23 H3A         -2.1040     1.2770     0.2220 hc         1 SMZ       0.041700
     24 HN6          1.7720    -1.0310     0.5500 hn         1 SMZ       0.488000
     25 HN8          4.1530     1.7210    -0.7460 hn         1 SMZ       0.382400
     26 O1          -5.0850     0.4570    -0.9590 o          1 SMZ      -0.734000
     27 O2          -5.1270     0.7440     1.1720 o          1 SMZ      -0.734000
@<TRIPOS>BOND
     1     1     2 1   
     2     1    12 1   
     3     1    13 1   
     4     1    14 1   
     5     2    10 1   
     6     3     6 1   
     7     3     7 1   
     8     3     8 1   
     9     3    15 1   
    10     4     5 1   
    11     4     8 1   
    12     4    16 1   
    13     4    17 1   
    14     5     9 1   
    15     5    18 1   
    16     5    19 1   
    17     6    26 1   
    18     6    27 1   
    19     7    20 1   
    20     7    21 1   
    21     8    22 1   
    22     8    23 1   
    23     9    10 1   
    24     9    24 1   
    25    10    11 2   
    26    11    25 1   
@<TRIPOS>SUBSTRUCTURE
     1 SMZ         1 TEMP              0 ****  ****    0 ROOT
