@<TRIPOS>MOLECULE
SN0
   28    27     1     0     0
SMALL
bcc


@<TRIPOS>ATOM
      1 CA           1.9980    -0.2530    -0.2040 c3         1 SN0      -0.032300
      2 C            2.3900    -1.6210     0.4140 c          1 SN0       0.926600
      3 OXT          3.4090    -2.1460    -0.0780 o          1 SN0      -0.840300
      4 O            1.6920    -2.0600     1.3430 o          1 SN0      -0.840300
      5 CB           3.0110     0.8190     0.1960 c3         1 SN0      -0.072400
      6 CG           2.8000     2.1670    -0.4860 c3         1 SN0      -0.081400
      7 CD           3.8640     3.1840    -0.0980 c3         1 SN0      -0.084100
      8 N1           0.6690     0.1720     0.1690 ns         1 SN0      -0.545900
      9 C1          -0.4360    -0.4540    -0.2610 c          1 SN0       0.665100
     10 O1          -0.4090    -1.3050    -1.1440 o          1 SN0      -0.644100
     11 C2          -1.7260    -0.0340     0.4120 c3         1 SN0      -0.135400
     12 C3          -2.8880     0.0890    -0.5590 c3         1 SN0      -0.195400
     13 C4          -4.2490     0.3830     0.0950 c          1 SN0       0.924600
     14 OD1         -5.1480     0.7820    -0.6740 o          1 SN0      -0.863800
     15 OD2         -4.3600     0.1820     1.3210 o          1 SN0      -0.863800
     16 HA           2.0310    -0.3580    -1.2930 h1         1 SN0       0.053700
     17 HB1          4.0070     0.4440    -0.0490 hc         1 SN0       0.037200
     18 HB2          2.9900     0.9510     1.2840 hc         1 SN0       0.037200
     19 HG1          1.8120     2.5650    -0.2380 hc         1 SN0       0.036200
     20 HG2          2.8060     2.0230    -1.5710 hc         1 SN0       0.036200
     21 HD1A         3.8690     3.3590     0.9800 hc         1 SN0       0.012700
     22 HD2          4.8620     2.8400    -0.3790 hc         1 SN0       0.012700
     23 HD3          3.6950     4.1440    -0.5870 hc         1 SN0       0.012700
     24 HN1          0.5830     0.7720     0.9740 hn         1 SN0       0.285500
     25 H21         -1.9580    -0.7910     1.1670 hc         1 SN0       0.050700
     26 H22         -1.5860     0.9010     0.9600 hc         1 SN0       0.050700
     27 H31         -2.6790     0.8660    -1.3010 hc         1 SN0       0.027200
     28 H32         -2.9840    -0.8390    -1.1320 hc         1 SN0       0.027200
@<TRIPOS>BOND
     1     1     2 1   
     2     1     5 1   
     3     1     8 1   
     4     1    16 1   
     5     2     3 1   
     6     2     4 1   
     7     5     6 1   
     8     5    17 1   
     9     5    18 1   
    10     6     7 1   
    11     6    19 1   
    12     6    20 1   
    13     7    21 1   
    14     7    22 1   
    15     7    23 1   
    16     8     9 1   
    17     8    24 1   
    18     9    10 2   
    19     9    11 1   
    20    11    12 1   
    21    11    25 1   
    22    11    26 1   
    23    12    13 1   
    24    12    27 1   
    25    12    28 1   
    26    13    14 1   
    27    13    15 1   
@<TRIPOS>SUBSTRUCTURE
     1 SN0         1 TEMP              0 ****  ****    0 ROOT
