@<TRIPOS>MOLECULE
SN0
   28    27     1     0     0
SMALL
No Charge or Current Charge


@<TRIPOS>ATOM
      1 CA           2.1930    -0.5630     0.2780 c3         1 SN0      -0.032300
      2 C            2.9030    -1.4470     1.3530 c          1 SN0       0.716000
      3 OXT          3.5710    -2.3980     0.9700 o          1 SN0      -0.735000
      4 O            2.7000    -1.2080     2.5370 o          1 SN0      -0.735000
      5 CB           2.8230     0.8530     0.2050 c3         1 SN0      -0.072400
      6 CG           2.2860     1.7390    -0.9430 c3         1 SN0      -0.081400
      7 CD           2.9910     3.1060    -1.0290 c3         1 SN0      -0.084100
      8 N1           0.7310    -0.5100     0.5320 ns         1 SN0      -0.478900
      9 C1          -0.2550    -0.5680    -0.4310 c          1 SN0       0.598100
     10 O1          -0.0100    -0.7330    -1.6190 o          1 SN0      -0.644100
     11 C2          -1.6890    -0.4540     0.1080 c3         1 SN0      -0.135400
     12 C3          -2.3210     0.9330    -0.2040 c3         1 SN0      -0.195400
     13 C4          -3.7530     1.0130     0.3540 c          1 SN0       0.714000
     14 OD1         -3.9030     1.3990     1.5030 o          1 SN0      -0.758500
     15 OD2         -4.6710     0.6350    -0.3560 o          1 SN0      -0.758500
     16 HA           2.3570    -1.0570    -0.6890 h1         1 SN0       0.053700
     17 HB1          3.9080     0.7420     0.0840 hc         1 SN0       0.037200
     18 HB2          2.6660     1.3680     1.1610 hc         1 SN0       0.037200
     19 HG1          1.2110     1.9080    -0.8080 hc         1 SN0       0.036200
     20 HG2          2.4120     1.2120    -1.8980 hc         1 SN0       0.036200
     21 HD1A         2.8550     3.6710    -0.0990 hc         1 SN0       0.012700
     22 HD2          4.0650     2.9790    -1.2050 hc         1 SN0       0.012700
     23 HD3          2.5760     3.6980    -1.8540 hc         1 SN0       0.012700
     24 HN1          0.4220    -0.4020     1.4910 hn         1 SN0       0.285500
     25 H21         -2.3040    -1.2290    -0.3640 hc         1 SN0       0.050700
     26 H22         -1.6900    -0.5940     1.1960 hc         1 SN0       0.050700
     27 H31         -1.6760     1.6710     0.2890 hc         1 SN0       0.027200
     28 H32         -2.3320     1.0190    -1.2970 hc         1 SN0       0.027200
@<TRIPOS>BOND
     1     1     2 1   
     2     1     5 1   
     3     1     8 1   
     4     1    16 1   
     5     2     3 1   
     6     2     4 1   
     7     5     6 1   
     8     5    17 1   
     9     5    18 1   
    10     6     7 1   
    11     6    19 1   
    12     6    20 1   
    13     7    21 1   
    14     7    22 1   
    15     7    23 1   
    16     8     9 1   
    17     8    24 1   
    18     9    10 2   
    19     9    11 1   
    20    11    12 1   
    21    11    25 1   
    22    11    26 1   
    23    12    13 1   
    24    12    27 1   
    25    12    28 1   
    26    13    14 1   
    27    13    15 1   
@<TRIPOS>SUBSTRUCTURE
     1 SN0         1 TEMP              0 ****  ****    0 ROOT
