@<TRIPOS>MOLECULE
SN1
   20    20     1     0     0
SMALL
No Charge or Current Charge


@<TRIPOS>ATOM
      1 CA2          0.6040    -0.0230     2.2200 ce         1 SN1      -0.228200
      2 CB2         -0.3010    -0.0660     1.1910 cf         1 SN1      -0.221200
      3 CG          -0.0700    -0.1100    -0.2760 ca         1 SN1      -0.055800
      4 CD1         -1.1560    -0.1520    -1.1900 ca         1 SN1       0.158100
      5 CE1         -0.9250    -0.1930    -2.5740 ca         1 SN1      -0.251000
      6 CD2          1.2440    -0.1110    -0.7960 ca         1 SN1      -0.056000
      7 CE2          1.4670    -0.1520    -2.1840 ca         1 SN1      -0.241000
      8 CZ           0.3830    -0.1930    -3.0670 ca         1 SN1       0.139100
      9 OH1          0.5990    -0.2330    -4.4080 oh         1 SN1      -0.549100
     10 OH2         -2.4500    -0.1530    -0.7510 oh         1 SN1      -0.515100
     11 C2           0.2740     0.0190     3.6790 c          1 SN1       0.695200
     12 O2          -0.8980     0.0160     4.0220 o          1 SN1      -0.726500
     13 O1           1.2050     0.0550     4.4680 o          1 SN1      -0.726500
     14 HA2          1.6680    -0.0180     2.0030 ha         1 SN1       0.138000
     15 HB2         -1.3550    -0.0700     1.4790 ha         1 SN1       0.205000
     16 HE1         -1.7580    -0.2240    -3.2710 ha         1 SN1       0.111000
     17 HD2          2.1040    -0.0800    -0.1340 ha         1 SN1       0.121000
     18 HE2          2.4870    -0.1520    -2.5620 ha         1 SN1       0.100000
     19 HH1          1.5680    -0.2260    -4.5610 ho         1 SN1       0.454000
     20 HH2         -3.0370    -0.1840    -1.5350 ho         1 SN1       0.448000
@<TRIPOS>BOND
     1     1     2 2   
     2     1    11 1   
     3     1    14 1   
     4     2     3 1   
     5     2    15 1   
     6     3     4 ar  
     7     3     6 ar  
     8     4     5 ar  
     9     4    10 1   
    10     5     8 ar  
    11     5    16 1   
    12     6     7 ar  
    13     6    17 1   
    14     7     8 ar  
    15     7    18 1   
    16     8     9 1   
    17     9    19 1   
    18    10    20 1   
    19    11    12 1   
    20    11    13 1   
@<TRIPOS>SUBSTRUCTURE
     1 SN1         1 TEMP              0 ****  ****    0 ROOT
