@<TRIPOS>MOLECULE
SN1
   20    20     1     0     0
SMALL
bcc


@<TRIPOS>ATOM
      1 CA2          0.5910    -0.1140     2.1570 ce         1 SN1      -0.178200
      2 CB2         -0.3090     0.0020     1.1750 cf         1 SN1      -0.171200
      3 CG          -0.0530    -0.0700    -0.2630 ca         1 SN1      -0.055800
      4 CD1         -1.1170    -0.1700    -1.1770 ca         1 SN1       0.158100
      5 CE1         -0.8880    -0.2340    -2.5470 ca         1 SN1      -0.269000
      6 CD2          1.2360    -0.0350    -0.8010 ca         1 SN1      -0.074000
      7 CE2          1.4850    -0.0990    -2.1580 ca         1 SN1      -0.259000
      8 CZ           0.4100    -0.2000    -3.0410 ca         1 SN1       0.139100
      9 OH1          0.5690    -0.2620    -4.3760 oh         1 SN1      -0.510100
     10 OH2         -2.3680    -0.2070    -0.6820 oh         1 SN1      -0.476100
     11 C2           0.2290     0.0020     3.6170 c          1 SN1       0.905800
     12 O2          -0.9660     0.2120     3.9120 o          1 SN1      -0.831800
     13 O1           1.1800    -0.1240     4.4190 o          1 SN1      -0.831800
     14 HA2          1.6370    -0.3030     1.9350 ha         1 SN1       0.088000
     15 HB2         -1.3370     0.1700     1.4770 ha         1 SN1       0.155000
     16 HE1         -1.7220    -0.3120    -3.2370 ha         1 SN1       0.129000
     17 HD2          2.0810     0.0570    -0.1300 ha         1 SN1       0.139000
     18 HE2          2.5030    -0.0620    -2.5280 ha         1 SN1       0.118000
     19 HH1          1.5060    -0.2340    -4.6020 ho         1 SN1       0.415000
     20 HH2         -3.0130    -0.2680    -1.3960 ho         1 SN1       0.409000
@<TRIPOS>BOND
     1     1     2 2   
     2     1    11 1   
     3     1    14 1   
     4     2     3 1   
     5     2    15 1   
     6     3     4 ar  
     7     3     6 ar  
     8     4     5 ar  
     9     4    10 1   
    10     5     8 ar  
    11     5    16 1   
    12     6     7 ar  
    13     6    17 1   
    14     7     8 ar  
    15     7    18 1   
    16     8     9 1   
    17     9    19 1   
    18    10    20 1   
    19    11    12 1   
    20    11    13 1   
@<TRIPOS>SUBSTRUCTURE
     1 SN1         1 TEMP              0 ****  ****    0 ROOT
