@<TRIPOS>MOLECULE
SN2
   34    34     1     0     0
SMALL
No Charge or Current Charge


@<TRIPOS>ATOM
      1 C1         -10.2100   -14.0630    49.7670 ca         1 SN2       0.462000
      2 C2          -9.9320   -14.7460    50.9610 ca         1 SN2      -0.175000
      3 C3          -8.6940   -15.3960    51.1820 ca         1 SN2      -0.010600
      4 C4          -7.7230   -15.3460    50.1430 ca         1 SN2      -0.197200
      5 C5          -7.9980   -14.6540    48.9460 ca         1 SN2       0.044000
      6 C6          -9.2400   -14.0220    48.7590 ca         1 SN2      -0.251200
      7 C7         -11.5080   -11.9110    49.6380 c3         1 SN2       0.220800
      8 C8         -12.7350   -14.1470    49.7330 c3         1 SN2       0.220800
      9 C9         -11.8160   -11.2710    51.0110 c3         1 SN2       0.099100
     10 C10        -12.9640   -15.2120    48.6340 c3         1 SN2       0.099100
     11 C13         -8.4220   -16.0740    52.5230 c          1 SN2       0.620700
     12 O1          -6.4600   -17.2890    50.3200 o          1 SN2      -0.386500
     13 O2         -10.4360   -13.7640    46.7870 o          1 SN2      -0.389500
     14 O3          -5.4040   -15.4140    49.9590 o          1 SN2      -0.386500
     15 O4          -7.3020   -16.2550    52.9730 o          1 SN2      -0.567100
     16 O5          -8.6420   -12.5580    47.0720 o          1 SN2      -0.389500
     17 N1          -6.4220   -16.0540    50.2500 no         1 SN2       0.687200
     18 N2          -9.5080   -13.3380    47.4850 no         1 SN2       0.678200
     19 N3         -11.4490   -13.3980    49.6400 nh         1 SN2      -0.819400
     20 N4          -9.4860   -16.4340    53.2790 nt         1 SN2      -0.590000
     21 Cl1        -11.9030   -16.6860    48.8270 cl         1 SN2      -0.272000
     22 Cl2        -10.4860   -11.5500    52.2290 cl         1 SN2      -0.272000
     23 HC2        -10.6870   -14.7230    51.7390 ha         1 SN2       0.140000
     24 HC5         -7.2520   -14.6310    48.1500 ha         1 SN2       0.181000
     25 HC71       -10.5570   -11.4950    49.2790 h1         1 SN2       0.071950
     26 HC72       -12.2720   -11.5780    48.9230 h1         1 SN2       0.071950
     27 HC81       -12.8190   -14.6330    50.7150 h1         1 SN2       0.071950
     28 HC82       -13.5730   -13.4400    49.6750 h1         1 SN2       0.071950
     29 HC91       -11.9320   -10.1860    50.8970 h1         1 SN2       0.078200
     30 HC92       -12.7440   -11.6840    51.4240 h1         1 SN2       0.078200
     31 H101       -14.0040   -15.5600    48.6750 h1         1 SN2       0.078200
     32 H102       -12.7770   -14.7800    47.6440 h1         1 SN2       0.078200
     33 HN41        -9.3240   -16.8670    54.1760 hn         1 SN2       0.326000
     34 HN42       -10.4240   -16.3130    52.9310 hn         1 SN2       0.326000
@<TRIPOS>BOND
     1     1     2 ar  
     2     1     6 ar  
     3     1    19 1   
     4     2     3 ar  
     5     2    23 1   
     6     3     4 ar  
     7     3    11 1   
     8     4     5 ar  
     9     4    17 1   
    10     5     6 ar  
    11     5    24 1   
    12     6    18 1   
    13     7     9 1   
    14     7    19 1   
    15     7    25 1   
    16     7    26 1   
    17     8    10 1   
    18     8    19 1   
    19     8    27 1   
    20     8    28 1   
    21     9    22 1   
    22     9    29 1   
    23     9    30 1   
    24    10    21 1   
    25    10    31 1   
    26    10    32 1   
    27    11    15 2   
    28    11    20 1   
    29    12    17 1   
    30    13    18 1   
    31    14    17 1   
    32    16    18 1   
    33    20    33 1   
    34    20    34 1   
@<TRIPOS>SUBSTRUCTURE
     1 SN2         1 TEMP              0 ****  ****    0 ROOT
