@<TRIPOS>MOLECULE
SN2
   34    34     1     0     0
SMALL
abcg2


@<TRIPOS>ATOM
      1 C1         -10.2060   -14.0750    49.8940 ca         1 SN2       0.462000
      2 C2          -9.9380   -14.9360    50.9870 ca         1 SN2      -0.175000
      3 C3          -8.7100   -15.5110    51.2030 ca         1 SN2      -0.010600
      4 C4          -7.6680   -15.2550    50.2920 ca         1 SN2      -0.197200
      5 C5          -7.8880   -14.4570    49.1890 ca         1 SN2       0.044000
      6 C6          -9.1400   -13.9100    48.9690 ca         1 SN2      -0.251200
      7 C7         -11.4930   -12.0630    49.2780 c3         1 SN2       0.220800
      8 C8         -12.6390   -14.0400    50.2520 c3         1 SN2       0.220800
      9 C9         -11.9710   -11.0510    50.3060 c3         1 SN2       0.099100
     10 C10        -13.3260   -14.8120    49.1400 c3         1 SN2       0.099100
     11 C13         -8.5070   -16.2350    52.5150 c          1 SN2       0.620700
     12 O1          -6.2960   -16.8920    51.1320 o          1 SN2      -0.386500
     13 O2         -10.4230   -13.4780    47.1000 o          1 SN2      -0.389500
     14 O3          -5.4280   -15.4250    49.8010 o          1 SN2      -0.386500
     15 O4          -7.8390   -15.7160    53.4020 o          1 SN2      -0.567100
     16 O5          -8.3810   -12.7750    47.1090 o          1 SN2      -0.389500
     17 N1          -6.3780   -15.8950    50.4200 no         1 SN2       0.687200
     18 N2          -9.3350   -13.3320    47.6410 no         1 SN2       0.678200
     19 N3         -11.3940   -13.4150    49.8160 nh         1 SN2      -0.819400
     20 N4          -9.1690   -17.3900    52.6390 nt         1 SN2      -0.590000
     21 CL1        -12.3770   -16.2810    48.6570 cl         1 SN2      -0.272000
     22 CL2        -10.8490   -10.9860    51.7280 cl         1 SN2      -0.272000
     23 HC2        -10.7030   -15.0850    51.7320 ha         1 SN2       0.140000
     24 HC5         -7.1100   -14.3240    48.4530 ha         1 SN2       0.181000
     25 HC71       -10.5170   -11.7380    48.9360 h1         1 SN2       0.071950
     26 HC72       -12.1740   -12.0290    48.4230 h1         1 SN2       0.071950
     27 HC81       -12.4770   -14.6880    51.1080 h1         1 SN2       0.071950
     28 HC82       -13.3280   -13.2620    50.5770 h1         1 SN2       0.071950
     29 HC91       -11.9710   -10.0600    49.8590 h1         1 SN2       0.078200
     30 HC92       -12.9570   -11.2630    50.7060 h1         1 SN2       0.078200
     31 H101       -14.2960   -15.1700    49.4770 h1         1 SN2       0.078200
     32 H102       -13.4410   -14.2170    48.2390 h1         1 SN2       0.078200
     33 HN41        -9.1000   -17.9150    53.4980 hn         1 SN2       0.326000
     34 HN42        -9.6770   -17.7930    51.8680 hn         1 SN2       0.326000
@<TRIPOS>BOND
     1     1     2 ar  
     2     1     6 ar  
     3     1    19 1   
     4     2     3 ar  
     5     2    23 1   
     6     3     4 ar  
     7     3    11 1   
     8     4     5 ar  
     9     4    17 1   
    10     5     6 ar  
    11     5    24 1   
    12     6    18 1   
    13     7     9 1   
    14     7    19 1   
    15     7    25 1   
    16     7    26 1   
    17     8    10 1   
    18     8    19 1   
    19     8    27 1   
    20     8    28 1   
    21     9    22 1   
    22     9    29 1   
    23     9    30 1   
    24    10    21 1   
    25    10    31 1   
    26    10    32 1   
    27    11    15 2   
    28    11    20 1   
    29    12    17 1   
    30    13    18 1   
    31    14    17 1   
    32    16    18 1   
    33    20    33 1   
    34    20    34 1   
@<TRIPOS>SUBSTRUCTURE
     1 SN2         1 TEMP              0 ****  ****    0 ROOT
