@<TRIPOS>MOLECULE
SN3
   86    88     1     0     0
SMALL
abcg2


@<TRIPOS>ATOM
      1 C1          20.5870   -15.2800    18.2810 c6         1 SN3       0.172300
      2 C2          21.1790   -14.1980    19.1760 c6         1 SN3      -0.050400
      3 C3          20.1900   -13.5220    20.1270 c5         1 SN3      -0.067700
      4 C4          19.2330   -14.4990    20.8260 c5         1 SN3       0.136700
      5 C5          18.6360   -15.5300    19.8650 c6         1 SN3      -0.129400
      6 C6          19.7110   -16.2590    19.0710 c6         1 SN3       0.145300
      7 O7          20.5940   -17.0040    19.9190 oh         1 SN3      -0.676000
      8 N8          18.2060   -13.5840    21.3510 n          1 SN3      -0.392800
      9 C9          18.1560   -12.3180    20.6090 c5         1 SN3       0.030700
     10 C10         19.2350   -12.4830    19.5250 c5         1 SN3      -0.081400
     11 C11         16.7700   -12.0770    20.0030 c          1 SN3       0.606100
     12 N12         16.3200   -10.8180    20.1140 ns         1 SN3      -0.494900
     13 C13         15.0450   -10.3420    19.5990 c3         1 SN3       0.105000
     14 C14         14.1200    -9.8440    20.7080 c3         1 SN3      -0.033200
     15 C15         13.5990   -10.8980    21.6330 c2         1 SN3      -0.177400
     16 C16         12.9680   -10.5060    22.9430 c5         1 SN3       0.282000
     17 N17         12.6240   -11.7950    23.5350 nh         1 SN3      -0.799600
     18 C18         13.0010   -12.9130    22.6770 c5         1 SN3       0.275000
     19 C19         13.6110   -12.2210    21.4990 c2         1 SN3      -0.190200
     20 C20         12.0740   -11.9820    24.7610 c2         1 SN3       0.794100
     21 N21         11.8360   -13.1840    25.1930 n2         1 SN3      -0.847100
     22 N22         11.7460   -10.8220    25.4490 nv         1 SN3      -1.078200
     23 O23         16.1660   -12.9760    19.4190 o          1 SN3      -0.617100
     24 C24         17.4430   -13.7360    22.4390 c          1 SN3       0.595100
     25 O25         16.6870   -12.8510    22.8430 o          1 SN3      -0.609100
     26 C26         17.4480   -15.0880    23.1630 c3         1 SN3       0.040700
     27 C27         17.6400   -14.8760    24.6710 c3         1 SN3       0.165300
     28 C28         17.5380   -16.1310    25.5340 c3         1 SN3      -0.064700
     29 C29         18.6130   -17.1790    25.2520 c3         1 SN3      -0.086600
     30 C30         17.4810   -15.7720    27.0190 c3         1 SN3      -0.086600
     31 CL31        19.2650   -14.0440    24.8790 cl         1 SN3      -0.350000
     32 N32         16.1590   -15.6920    22.8880 ns         1 SN3      -0.481900
     33 C33         15.9830   -16.9730    22.5250 c          1 SN3       0.590100
     34 C34         14.5160   -17.3920    22.3550 c3         1 SN3       0.087300
     35 O35         13.6690   -16.3230    21.9890 os         1 SN3      -0.428000
     36 C36         13.8000   -15.9380    20.6220 c3         1 SN3       0.128900
     37 C37         13.9950   -18.0050    23.6440 c3         1 SN3       0.215600
     38 O38         14.0350   -16.9990    24.6650 os         1 SN3      -0.605700
     39 S39         13.5920   -17.4470    26.1690 s6         1 SN3       1.520300
     40 O40         13.6580   -16.1740    26.8700 o          1 SN3      -0.714533
     41 O41         12.2490   -18.0000    26.0380 o          1 SN3      -0.714533
     42 O42         14.5830   -18.4270    26.6010 o          1 SN3      -0.714533
     43 O43         16.8900   -17.7840    22.3640 o          1 SN3      -0.646100
     44 O46         19.8210   -14.6560    17.2450 oh         1 SN3      -0.665000
     45 H1          21.4090   -15.8510    17.8340 h1         1 SN3       0.041700
     46 H21         21.9610   -14.6700    19.7740 hc         1 SN3       0.055700
     47 H22         21.6690   -13.4500    18.5490 hc         1 SN3       0.055700
     48 H3          20.7670   -13.0220    20.9100 hc         1 SN3       0.054700
     49 H4          19.7370   -14.9970    21.6500 h1         1 SN3       0.078700
     50 H51         18.0330   -16.2530    20.4200 hc         1 SN3       0.077200
     51 H52         17.9640   -15.0260    19.1690 hc         1 SN3       0.077200
     52 H6          19.2300   -16.9380    18.3560 h1         1 SN3       0.031700
     53 HO7         20.0620   -17.6130    20.4470 ho         1 SN3       0.460000
     54 H9          18.4070   -11.5030    21.2910 h1         1 SN3       0.062700
     55 H101        19.7280   -11.5370    19.3080 hc         1 SN3       0.066200
     56 H102        18.7910   -12.8610    18.6060 hc         1 SN3       0.066200
     57 HN12        16.8680   -10.1680    20.6580 hn         1 SN3       0.311500
     58 H131        15.2310    -9.5250    18.8980 h1         1 SN3       0.054200
     59 H132        14.5910   -11.1600    19.0440 h1         1 SN3       0.054200
     60 H141        14.6470    -9.0840    21.2960 hc         1 SN3       0.042200
     61 H142        13.2780    -9.3190    20.2440 hc         1 SN3       0.042200
     62 H161        13.6790    -9.9420    23.5620 h1         1 SN3       0.030700
     63 H162        12.0850    -9.8690    22.8020 h1         1 SN3       0.030700
     64 H181        13.7060   -13.5800    23.1840 h1         1 SN3       0.080200
     65 H182        12.1320   -13.5270    22.4120 h1         1 SN3       0.080200
     66 H192        14.0400   -12.7680    20.6730 ha         1 SN3       0.205000
     67 HN21        11.4340   -13.1440    26.1260 hn         1 SN3       0.381400
     68 H221        11.5890   -10.9560    26.4360 hn         1 SN3       0.441500
     69 H222        12.3000    -9.9990    25.2590 hn         1 SN3       0.441500
     70 H26         18.2090   -15.7620    22.7860 h1         1 SN3       0.089700
     71 H27         16.9210   -14.1340    25.0090 h1         1 SN3       0.102700
     72 H28         16.5660   -16.5560    25.2670 hc         1 SN3       0.100700
     73 H291        18.4060   -18.0790    25.8330 hc         1 SN3       0.039533
     74 H292        18.6380   -17.4600    24.2000 hc         1 SN3       0.039533
     75 H293        19.6000   -16.8120    25.5400 hc         1 SN3       0.039533
     76 H301        17.2770   -16.6650    27.6110 hc         1 SN3       0.039533
     77 H302        18.4300   -15.3500    27.3570 hc         1 SN3       0.039533
     78 H303        16.6920   -15.0450    27.2180 hc         1 SN3       0.039533
     79 HN32        15.3320   -15.1250    23.0130 hn         1 SN3       0.360500
     80 H34         14.5060   -18.1770    21.5900 h1         1 SN3       0.047700
     81 H361        13.0730   -15.1490    20.4460 h1         1 SN3       0.031700
     82 H362        14.8030   -15.5560    20.4090 h1         1 SN3       0.031700
     83 H363        13.5900   -16.7860    19.9630 h1         1 SN3       0.031700
     84 H371        12.9680   -18.3400    23.4940 h1         1 SN3       0.056700
     85 H372        14.6210   -18.8540    23.9240 h1         1 SN3       0.056700
     86 HO46        19.5030   -15.3430    16.6460 ho         1 SN3       0.440000
@<TRIPOS>BOND
     1     1     2 1   
     2     1     6 1   
     3     1    44 1   
     4     1    45 1   
     5     2     3 1   
     6     2    46 1   
     7     2    47 1   
     8     3     4 1   
     9     3    10 1   
    10     3    48 1   
    11     4     5 1   
    12     4     8 1   
    13     4    49 1   
    14     5     6 1   
    15     5    50 1   
    16     5    51 1   
    17     6     7 1   
    18     6    52 1   
    19     7    53 1   
    20     8     9 1   
    21     8    24 1   
    22     9    10 1   
    23     9    11 1   
    24     9    54 1   
    25    10    55 1   
    26    10    56 1   
    27    11    12 1   
    28    11    23 2   
    29    12    13 1   
    30    12    57 1   
    31    13    14 1   
    32    13    58 1   
    33    13    59 1   
    34    14    15 1   
    35    14    60 1   
    36    14    61 1   
    37    15    16 1   
    38    15    19 2   
    39    16    17 1   
    40    16    62 1   
    41    16    63 1   
    42    17    18 1   
    43    17    20 1   
    44    18    19 1   
    45    18    64 1   
    46    18    65 1   
    47    19    66 1   
    48    20    21 2   
    49    20    22 1   
    50    21    67 1   
    51    22    68 1   
    52    22    69 1   
    53    24    25 2   
    54    24    26 1   
    55    26    27 1   
    56    26    32 1   
    57    26    70 1   
    58    27    28 1   
    59    27    31 1   
    60    27    71 1   
    61    28    29 1   
    62    28    30 1   
    63    28    72 1   
    64    29    73 1   
    65    29    74 1   
    66    29    75 1   
    67    30    76 1   
    68    30    77 1   
    69    30    78 1   
    70    32    33 1   
    71    32    79 1   
    72    33    34 1   
    73    33    43 2   
    74    34    35 1   
    75    34    37 1   
    76    34    80 1   
    77    35    36 1   
    78    36    81 1   
    79    36    82 1   
    80    36    83 1   
    81    37    38 1   
    82    37    84 1   
    83    37    85 1   
    84    38    39 1   
    85    39    40 1   
    86    39    41 1   
    87    39    42 1   
    88    44    86 1   
@<TRIPOS>SUBSTRUCTURE
     1 SN3         1 TEMP              0 ****  ****    0 ROOT
