@<TRIPOS>MOLECULE
SN3
   86    88     1     0     0
SMALL
No Charge or Current Charge


@<TRIPOS>ATOM
      1 C1          21.1280   -14.7430    18.8210 c6         1 SN3       0.172300
      2 C2          21.3120   -13.7070    19.9730 c6         1 SN3      -0.050400
      3 C3          19.9860   -13.3110    20.6910 c5         1 SN3      -0.067700
      4 C4          19.0850   -14.5250    21.0490 c5         1 SN3       0.136700
      5 C5          18.8880   -15.4990    19.8520 c6         1 SN3      -0.129400
      6 C6          20.2520   -15.9650    19.2770 c6         1 SN3       0.145300
      7 O7          20.9370   -16.7480    20.2670 oh         1 SN3      -0.676000
      8 N8          17.8270   -13.8280    21.4050 n          1 SN3      -0.392800
      9 C9          17.7170   -12.4660    20.8010 c5         1 SN3       0.030700
     10 C10         19.0020   -12.3830    19.9220 c5         1 SN3      -0.081400
     11 C11         16.4700   -12.2580    19.8820 c          1 SN3       0.606100
     12 N12         16.1830   -10.9110    19.8020 ns         1 SN3      -0.494900
     13 C13         15.0120   -10.3440    19.1230 c3         1 SN3       0.105000
     14 C14         14.2020    -9.4080    20.0480 c3         1 SN3      -0.033200
     15 C15         13.6200   -10.0570    21.2980 c2         1 SN3      -0.177400
     16 C16         13.1060    -9.2190    22.4530 c5         1 SN3       0.282000
     17 N17         12.3850   -10.2580    23.2290 nh         1 SN3      -0.799600
     18 C18         12.8920   -11.6210    22.9270 c5         1 SN3       0.275000
     19 C19         13.4880   -11.3630    21.5640 c2         1 SN3      -0.190200
     20 C20         12.1910    -9.9850    24.5260 c2         1 SN3       0.794100
     21 N21         13.1100    -9.8610    25.3640 n2         1 SN3      -0.847100
     22 N22         10.9120    -9.8670    24.7930 nv         1 SN3      -1.078200
     23 O23         15.8120   -13.1210    19.3120 o          1 SN3      -0.617100
     24 C24         16.8490   -14.3280    22.2980 c          1 SN3       0.595100
     25 O25         15.8500   -13.6610    22.5490 o          1 SN3      -0.609100
     26 C26         17.0410   -15.7220    22.9620 c3         1 SN3       0.040700
     27 C27         17.5980   -15.5890    24.4140 c3         1 SN3       0.165300
     28 C28         17.9780   -16.9430    25.0950 c3         1 SN3      -0.064700
     29 C29         19.1640   -17.6750    24.4140 c3         1 SN3      -0.086600
     30 C30         18.2380   -16.7760    26.6130 c3         1 SN3      -0.086600
     31 Cl31        18.9920   -14.4060    24.5120 cl         1 SN3      -0.350000
     32 N32         15.7340   -16.4210    22.9620 ns         1 SN3      -0.481900
     33 C33         15.5220   -17.7410    22.6300 c          1 SN3       0.590100
     34 C34         14.0490   -18.2140    22.7280 c3         1 SN3       0.087300
     35 O35         13.0870   -17.1240    22.6060 os         1 SN3      -0.428000
     36 C36         12.9500   -16.5650    21.2850 c3         1 SN3       0.128900
     37 C37         13.8130   -18.9380    24.0750 c3         1 SN3       0.215600
     38 O38         14.1780   -18.0600    25.1570 os         1 SN3      -0.605700
     39 S39         14.0210   -18.6790    26.6670 s6         1 SN3       1.520300
     40 O40         14.4230   -17.5700    27.5430 o          1 SN3      -0.714533
     41 O41         12.6010   -19.0450    26.7610 o          1 SN3      -0.714533
     42 O42         14.9400   -19.8250    26.6780 o          1 SN3      -0.714533
     43 O43         16.4320   -18.4670    22.2500 o          1 SN3      -0.646100
     44 O46         20.5750   -14.1050    17.6570 oh         1 SN3      -0.665000
     45 H1          22.1270   -15.1260    18.5630 h1         1 SN3       0.041700
     46 H21         21.9920   -14.1410    20.7190 hc         1 SN3       0.055700
     47 H22         21.8180   -12.8090    19.5960 hc         1 SN3       0.055700
     48 H3          20.3070   -12.8070    21.6120 hc         1 SN3       0.054700
     49 H4          19.5200   -15.0780    21.8920 h1         1 SN3       0.078700
     50 H51         18.2960   -16.3690    20.1630 hc         1 SN3       0.077200
     51 H52         18.3050   -15.0150    19.0570 hc         1 SN3       0.077200
     52 H6          20.0590   -16.5930    18.3950 h1         1 SN3       0.031700
     53 HO7         20.5180   -17.6370    20.2700 ho         1 SN3       0.460000
     54 H9          17.7210   -11.7040    21.5930 h1         1 SN3       0.062700
     55 H101        19.3770   -11.3570    19.8320 hc         1 SN3       0.066200
     56 H102        18.8070   -12.7350    18.9040 hc         1 SN3       0.066200
     57 HN12        16.7890   -10.2820    20.3150 hn         1 SN3       0.311500
     58 H131        15.3610    -9.7740    18.2520 h1         1 SN3       0.054200
     59 H132        14.3590   -11.1460    18.7560 h1         1 SN3       0.054200
     60 H141        14.8590    -8.5810    20.3460 hc         1 SN3       0.042200
     61 H142        13.3910    -8.9540    19.4650 hc         1 SN3       0.042200
     62 H161        13.9390    -8.7770    23.0160 h1         1 SN3       0.030700
     63 H162        12.4350    -8.4120    22.1280 h1         1 SN3       0.030700
     64 H181        13.6640   -11.9520    23.6370 h1         1 SN3       0.080200
     65 H182        12.0890   -12.3720    22.9100 h1         1 SN3       0.080200
     66 H192        13.7820   -12.1650    20.8890 ha         1 SN3       0.205000
     67 HN21        12.6610    -9.6920    26.2690 hn         1 SN3       0.381400
     68 H221        10.7080    -9.0380    25.3340 hn         1 SN3       0.441500
     69 H222        10.3980    -9.9240    23.9260 hn         1 SN3       0.441500
     70 H26         17.7430   -16.2990    22.3570 h1         1 SN3       0.089700
     71 H27         16.8020   -15.1270    25.0150 h1         1 SN3       0.102700
     72 H28         17.1060   -17.6030    25.0120 hc         1 SN3       0.100700
     73 H291        19.3500   -18.6390    24.9020 hc         1 SN3       0.039533
     74 H292        18.9590   -17.8780    23.3570 hc         1 SN3       0.039533
     75 H293        20.0860   -17.0850    24.4760 hc         1 SN3       0.039533
     76 H301        18.3790   -17.7540    27.0890 hc         1 SN3       0.039533
     77 H302        19.1370   -16.1770    26.8010 hc         1 SN3       0.039533
     78 H303        17.3880   -16.2850    27.1010 hc         1 SN3       0.039533
     79 HN32        14.9030   -15.9040    23.2360 hn         1 SN3       0.360500
     80 H34         13.8870   -18.9440    21.9240 h1         1 SN3       0.047700
     81 H361        12.2050   -15.7600    21.2900 h1         1 SN3       0.031700
     82 H362        13.9000   -16.1450    20.9290 h1         1 SN3       0.031700
     83 H363        12.6200   -17.3300    20.5710 h1         1 SN3       0.031700
     84 H371        12.7570   -19.2330    24.1370 h1         1 SN3       0.056700
     85 H372        14.4210   -19.8520    24.0890 h1         1 SN3       0.056700
     86 HO46        20.6710   -14.7390    16.9130 ho         1 SN3       0.440000
@<TRIPOS>BOND
     1     1     2 1   
     2     1     6 1   
     3     1    44 1   
     4     1    45 1   
     5     2     3 1   
     6     2    46 1   
     7     2    47 1   
     8     3     4 1   
     9     3    10 1   
    10     3    48 1   
    11     4     5 1   
    12     4     8 1   
    13     4    49 1   
    14     5     6 1   
    15     5    50 1   
    16     5    51 1   
    17     6     7 1   
    18     6    52 1   
    19     7    53 1   
    20     8     9 1   
    21     8    24 1   
    22     9    10 1   
    23     9    11 1   
    24     9    54 1   
    25    10    55 1   
    26    10    56 1   
    27    11    12 1   
    28    11    23 2   
    29    12    13 1   
    30    12    57 1   
    31    13    14 1   
    32    13    58 1   
    33    13    59 1   
    34    14    15 1   
    35    14    60 1   
    36    14    61 1   
    37    15    16 1   
    38    15    19 2   
    39    16    17 1   
    40    16    62 1   
    41    16    63 1   
    42    17    18 1   
    43    17    20 1   
    44    18    19 1   
    45    18    64 1   
    46    18    65 1   
    47    19    66 1   
    48    20    21 2   
    49    20    22 1   
    50    21    67 1   
    51    22    68 1   
    52    22    69 1   
    53    24    25 2   
    54    24    26 1   
    55    26    27 1   
    56    26    32 1   
    57    26    70 1   
    58    27    28 1   
    59    27    31 1   
    60    27    71 1   
    61    28    29 1   
    62    28    30 1   
    63    28    72 1   
    64    29    73 1   
    65    29    74 1   
    66    29    75 1   
    67    30    76 1   
    68    30    77 1   
    69    30    78 1   
    70    32    33 1   
    71    32    79 1   
    72    33    34 1   
    73    33    43 2   
    74    34    35 1   
    75    34    37 1   
    76    34    80 1   
    77    35    36 1   
    78    36    81 1   
    79    36    82 1   
    80    36    83 1   
    81    37    38 1   
    82    37    84 1   
    83    37    85 1   
    84    38    39 1   
    85    39    40 1   
    86    39    41 1   
    87    39    42 1   
    88    44    86 1   
@<TRIPOS>SUBSTRUCTURE
     1 SN3         1 TEMP              0 ****  ****    0 ROOT
