@<TRIPOS>MOLECULE
SN4
   19    19     1     0     0
SMALL
bcc


@<TRIPOS>ATOM
      1 N1          52.5370   113.6600    29.5250 nt         1 SN4      -0.570000
      2 C4          51.6560   115.6120    30.5550 ca         1 SN4      -0.299900
      3 C5          50.4940   116.2570    30.9750 ca         1 SN4       0.512200
      4 C6          51.6140   114.6080    29.4770 cs         1 SN4       0.491000
      5 N           50.4620   117.1660    31.9310 nb         1 SN4      -0.701000
      6 C           52.5780   118.9170    34.1590 c3         1 SN4       0.126700
      7 C1          51.5960   117.5120    32.5230 ca         1 SN4       0.679600
      8 C2          52.8260   116.9410    32.1840 ca         1 SN4      -0.342300
      9 C3          52.8400   115.9800    31.1950 ca         1 SN4      -0.036000
     10 S           50.4850   114.6780    28.2520 s          1 SN4      -0.574400
     11 H1          52.5840   112.9660    28.7970 hn         1 SN4       0.323000
     12 H2          53.1470   113.5350    30.3170 hn         1 SN4       0.323000
     13 H3          49.5470   116.0080    30.5120 h4         1 SN4       0.056100
     14 H4          52.2140   119.6550    34.8690 h1         1 SN4       0.048033
     15 H5          53.0760   118.1150    34.7070 h1         1 SN4       0.048033
     16 H6          53.2960   119.3940    33.4890 h1         1 SN4       0.048033
     17 H7          53.7510   117.2320    32.6620 ha         1 SN4       0.148000
     18 H8          53.7910   115.5460    30.9110 ha         1 SN4       0.131000
     19 O           51.4390   118.4470    33.4550 os         1 SN4      -0.412100
@<TRIPOS>BOND
     1     1     4 1   
     2     1    11 1   
     3     1    12 1   
     4     2     3 ar  
     5     2     4 1   
     6     2     9 ar  
     7     3     5 ar  
     8     3    13 1   
     9     4    10 2   
    10     5     7 ar  
    11     6    14 1   
    12     6    15 1   
    13     6    16 1   
    14     6    19 1   
    15     7     8 ar  
    16     7    19 1   
    17     8     9 ar  
    18     8    17 1   
    19     9    18 1   
@<TRIPOS>SUBSTRUCTURE
     1 SN4         1 TEMP              0 ****  ****    0 ROOT
