@<TRIPOS>MOLECULE
SN4
   19    19     1     0     0
SMALL
No Charge or Current Charge


@<TRIPOS>ATOM
      1 N1          52.6620   113.7550    29.3090 nt         1 SN4      -0.503000
      2 C4          51.6200   115.5560    30.5830 ca         1 SN4      -0.234600
      3 C5          50.4810   116.3390    30.8560 ca         1 SN4       0.446900
      4 C6          51.5490   114.4770    29.5360 cs         1 SN4       0.424000
      5 N           50.4540   117.3280    31.7770 nb         1 SN4      -0.701000
      6 C           52.6030   118.9900    34.2190 c3         1 SN4       0.149900
      7 C1          51.5720   117.5840    32.4740 ca         1 SN4       0.614300
      8 C2          52.7610   116.8560    32.2720 ca         1 SN4      -0.259000
      9 C3          52.7920   115.8300    31.3180 ca         1 SN4      -0.018000
     10 S           50.1750   114.1330    28.6530 s          1 SN4      -0.574400
     11 H1          52.6490   113.0230    28.6130 hn         1 SN4       0.323000
     12 H2          53.5090   113.9360    29.8240 hn         1 SN4       0.323000
     13 H3          49.5450   116.1790    30.3240 h4         1 SN4       0.056100
     14 H4          52.3170   119.8170    34.8820 h1         1 SN4       0.048033
     15 H5          52.9380   118.1540    34.8470 h1         1 SN4       0.048033
     16 H6          53.4450   119.3280    33.6020 h1         1 SN4       0.048033
     17 H7          53.6590   117.0710    32.8410 ha         1 SN4       0.130000
     18 H8          53.7140   115.2720    31.1670 ha         1 SN4       0.113000
     19 O           51.4870   118.6010    33.3980 os         1 SN4      -0.435300
@<TRIPOS>BOND
     1     1     4 1   
     2     1    11 1   
     3     1    12 1   
     4     2     3 ar  
     5     2     4 1   
     6     2     9 ar  
     7     3     5 ar  
     8     3    13 1   
     9     4    10 2   
    10     5     7 ar  
    11     6    14 1   
    12     6    15 1   
    13     6    16 1   
    14     6    19 1   
    15     7     8 ar  
    16     7    19 1   
    17     8     9 ar  
    18     8    17 1   
    19     9    18 1   
@<TRIPOS>SUBSTRUCTURE
     1 SN4         1 TEMP              0 ****  ****    0 ROOT
