@<TRIPOS>MOLECULE
SN5
   30    30     1     0     0
SMALL
No Charge or Current Charge


@<TRIPOS>ATOM
      1 C1           0.0390    -1.0220    -0.7210 c6         1 SN5       0.391300
      2 S7          -3.3890    -0.7310     1.3140 s          1 SN5      -0.568400
      3 C2          -0.6230     0.2180    -0.0420 c6         1 SN5       0.058700
      4 C3           0.3460     1.4240    -0.2130 c6         1 SN5       0.164300
      5 C4           1.7630     1.0910     0.3460 c6         1 SN5       0.098300
      6 C5           2.2850    -0.2120    -0.3430 c6         1 SN5       0.154300
      7 C6           3.6660    -0.6910     0.2170 c3         1 SN5       0.170600
      8 C7          -3.1770     0.1240    -0.1120 cs         1 SN5       0.402400
      9 C8          -4.3450     0.6030    -0.9480 c3         1 SN5      -0.150100
     10 N2          -1.9620     0.5270    -0.6030 ns         1 SN5      -0.381900
     11 O3          -0.1590     2.5990     0.4370 oh         1 SN5      -0.639000
     12 O4           2.6460     2.2170     0.1340 oh         1 SN5      -0.724000
     13 O5           1.3220    -1.2790    -0.1450 os         1 SN5      -0.463000
     14 O6           4.1190    -1.9280    -0.3670 oh         1 SN5      -0.706000
     15 O1          -0.6950    -2.2060    -0.4980 oh         1 SN5      -0.617000
     16 H81C        -4.3810     1.6990    -0.9720 hc         1 SN5       0.063700
     17 H82C        -4.2630     0.2350    -1.9770 hc         1 SN5       0.063700
     18 H83C        -5.2940     0.2420    -0.5350 hc         1 SN5       0.063700
     19 H2          -1.9900     1.0890    -1.4470 hn         1 SN5       0.303500
     20 HA          -0.7220     0.0040     1.0310 h1         1 SN5       0.144700
     21 H1           0.1480    -0.8520    -1.8020 h2         1 SN5       0.011700
     22 H3           0.4490     1.6250    -1.2900 h1         1 SN5       0.034700
     23 HB           0.0010    -2.8670    -0.3020 ho         1 SN5       0.462000
     24 HC           0.6140     3.2070     0.4850 ho         1 SN5       0.459000
     25 H4           1.6640     0.8870     1.4240 h1         1 SN5       0.067700
     26 HD           3.3710     2.1640     0.8030 ho         1 SN5       0.515000
     27 H5           2.3980    -0.0340    -1.4230 h1         1 SN5       0.057700
     28 H61C         4.4070     0.0980     0.0320 h1         1 SN5       0.028700
     29 H62C         3.5730    -0.8020     1.3060 h1         1 SN5       0.028700
     30 H6           4.9500    -2.1800     0.1010 ho         1 SN5       0.507000
@<TRIPOS>BOND
     1     1     3 1   
     2     1    13 1   
     3     1    15 1   
     4     1    21 1   
     5     2     8 2   
     6     3     4 1   
     7     3    10 1   
     8     3    20 1   
     9     4     5 1   
    10     4    11 1   
    11     4    22 1   
    12     5     6 1   
    13     5    12 1   
    14     5    25 1   
    15     6     7 1   
    16     6    13 1   
    17     6    27 1   
    18     7    14 1   
    19     7    28 1   
    20     7    29 1   
    21     8     9 1   
    22     8    10 1   
    23     9    16 1   
    24     9    17 1   
    25     9    18 1   
    26    10    19 1   
    27    11    24 1   
    28    12    26 1   
    29    14    30 1   
    30    15    23 1   
@<TRIPOS>SUBSTRUCTURE
     1 SN5         1 TEMP              0 ****  ****    0 ROOT
