@<TRIPOS>MOLECULE
SN5
   30    30     1     0     0
SMALL
abcg2


@<TRIPOS>ATOM
      1 C1           0.0930    -1.0910    -0.6130 c6         1 SN5       0.391300
      2 S7          -3.2760    -0.0520     1.5610 s          1 SN5      -0.568400
      3 C2          -0.5610     0.1560    -0.0120 c6         1 SN5       0.058700
      4 C3           0.3580     1.3570    -0.1990 c6         1 SN5       0.164300
      5 C4           1.7520     1.0460     0.3420 c6         1 SN5       0.098300
      6 C5           2.2700    -0.2570    -0.2740 c6         1 SN5       0.154300
      7 C6           3.6080    -0.6670     0.3010 c3         1 SN5       0.170600
      8 C7          -3.0260     0.3250    -0.0430 cs         1 SN5       0.402400
      9 C8          -4.1920     0.6310    -0.9360 c3         1 SN5      -0.150100
     10 N2          -1.8410     0.4010    -0.6270 ns         1 SN5      -0.381900
     11 O3          -0.2250     2.4570     0.4440 oh         1 SN5      -0.639000
     12 O4           2.5720     2.1460     0.0150 oh         1 SN5      -0.724000
     13 O5           1.3460    -1.2920    -0.0110 os         1 SN5      -0.463000
     14 O6           4.0710    -1.8040    -0.3860 oh         1 SN5      -0.706000
     15 O1          -0.7060    -2.1780    -0.3520 oh         1 SN5      -0.617000
     16 H81C        -4.6710     1.5500    -0.5990 hc         1 SN5       0.063700
     17 H82C        -3.9120     0.7520    -1.9820 hc         1 SN5       0.063700
     18 H83C        -4.9300    -0.1650    -0.8610 hc         1 SN5       0.063700
     19 H2          -1.8270     0.6490    -1.6070 hn         1 SN5       0.303500
     20 HA          -0.7340    -0.0150     1.0540 h1         1 SN5       0.144700
     21 H1           0.2340    -0.9410    -1.6990 h2         1 SN5       0.011700
     22 H3           0.4640     1.5480    -1.2810 h1         1 SN5       0.034700
     23 HB          -0.4780    -2.8930    -0.9560 ho         1 SN5       0.462000
     24 HC           0.3490     3.2190     0.3040 ho         1 SN5       0.459000
     25 H4           1.6790     0.9150     1.4310 h1         1 SN5       0.067700
     26 HD           3.2250     2.2720     0.7100 ho         1 SN5       0.515000
     27 H5           2.3810    -0.1120    -1.3610 h1         1 SN5       0.057700
     28 H61C         4.3010     0.1750     0.1970 h1         1 SN5       0.028700
     29 H62C         3.4920    -0.8590     1.3770 h1         1 SN5       0.028700
     30 H6           4.9440    -2.0210    -0.0480 ho         1 SN5       0.507000
@<TRIPOS>BOND
     1     1     3 1   
     2     1    13 1   
     3     1    15 1   
     4     1    21 1   
     5     2     8 2   
     6     3     4 1   
     7     3    10 1   
     8     3    20 1   
     9     4     5 1   
    10     4    11 1   
    11     4    22 1   
    12     5     6 1   
    13     5    12 1   
    14     5    25 1   
    15     6     7 1   
    16     6    13 1   
    17     6    27 1   
    18     7    14 1   
    19     7    28 1   
    20     7    29 1   
    21     8     9 1   
    22     8    10 1   
    23     9    16 1   
    24     9    17 1   
    25     9    18 1   
    26    10    19 1   
    27    11    24 1   
    28    12    26 1   
    29    14    30 1   
    30    15    23 1   
@<TRIPOS>SUBSTRUCTURE
     1 SN5         1 TEMP              0 ****  ****    0 ROOT
