@<TRIPOS>MOLECULE
SN6
   62    66     1     0     0
SMALL
No Charge or Current Charge


@<TRIPOS>ATOM
      1 C1          -9.6930     0.5850    -1.6190 ca         1 SN6      -0.016000
      2 C2          -9.4200    -0.6240    -0.9610 ca         1 SN6      -0.140000
      3 C3          -8.1970    -0.8190    -0.2730 ca         1 SN6       0.006000
      4 C4          -7.2450     0.2390    -0.2440 ca         1 SN6      -0.132000
      5 C5          -7.5320     1.4490    -0.9250 ca         1 SN6      -0.064000
      6 C6          -8.7480     1.6180    -1.6040 ca         1 SN6      -0.090000
      7 N7          -7.9130    -2.0400     0.3750 na         1 SN6      -0.008700
      8 C8          -6.7190    -2.1750     1.0860 ca         1 SN6       0.080700
      9 C9          -5.7770    -1.1380     1.1230 ca         1 SN6      -0.274000
     10 C10         -6.0220     0.0640     0.4530 ca         1 SN6       0.467000
     11 N11         -5.0730     1.0840     0.5450 nu         1 SN6      -0.921000
     12 C12         -3.6780     1.0880     0.6260 ca         1 SN6       0.257000
     13 C13         -3.0220     2.2210     1.1280 ca         1 SN6      -0.121500
     14 C14         -1.6190     2.2570     1.2090 ca         1 SN6      -0.046000
     15 C15         -0.8390     1.1580     0.7780 ca         1 SN6      -0.144600
     16 C16         -1.5100     0.0230     0.2580 ca         1 SN6      -0.046000
     17 C17         -2.9150    -0.0040     0.1820 ca         1 SN6      -0.121500
     18 C18          0.6750     1.2330     0.8810 c          1 SN6       0.623700
     19 O19          1.2270     2.2310     1.3320 o          1 SN6      -0.551100
     20 N20          1.3720     0.1180     0.4300 ns         1 SN6      -0.141000
     21 C21          2.7600    -0.1930     0.3900 ca         1 SN6       0.006000
     22 C22          3.1490    -1.3540    -0.3050 ca         1 SN6      -0.133500
     23 C23          4.5020    -1.7270    -0.3830 ca         1 SN6      -0.075000
     24 C24          5.4920    -0.9390     0.2290 ca         1 SN6      -0.078200
     25 C25          5.1080     0.2100     0.9450 ca         1 SN6      -0.075000
     26 C26          3.7550     0.5840     1.0240 ca         1 SN6      -0.133500
     27 N27          6.8380    -1.3330     0.1560 nu         1 SN6      -0.315500
     28 C28          8.0100    -0.6290    -0.0240 cc         1 SN6       0.444900
     29 C29          8.0140     0.7130    -0.4440 cc         1 SN6      -0.375100
     30 C30          9.1850     1.4140    -0.6340 cd         1 SN6       0.072500
     31 N31         10.4160     0.7520    -0.3840 na         1 SN6      -0.417200
     32 C32         10.4430    -0.6140     0.0020 cd         1 SN6       0.072500
     33 C33          9.2440    -1.2710     0.1760 cc         1 SN6      -0.375100
     34 C34         11.6920     1.4890    -0.5590 c3         1 SN6       0.173100
     35 C35         -8.8290    -3.1990     0.2880 c3         1 SN6       0.026900
     36 H1         -10.6360     0.7200    -2.1450 ha         1 SN6       0.153000
     37 H2         -10.1790    -1.4010    -1.0010 ha         1 SN6       0.147000
     38 H5          -6.8200     2.2700    -0.9460 ha         1 SN6       0.127000
     39 H6          -8.9570     2.5520    -2.1220 ha         1 SN6       0.153000
     40 H8          -6.5430    -3.1120     1.6170 h4         1 SN6       0.170000
     41 H9          -4.8670    -1.2650     1.6990 ha         1 SN6       0.169000
     42 HN1         -5.4930     2.0120     0.5760 hn         1 SN6       0.524000
     43 H13         -3.5970     3.0780     1.4670 ha         1 SN6       0.136500
     44 H14         -1.1400     3.1480     1.6110 ha         1 SN6       0.142500
     45 H16         -0.9650    -0.8480    -0.0970 ha         1 SN6       0.142500
     46 H17         -3.4050    -0.8760    -0.2390 ha         1 SN6       0.136500
     47 HN2          0.7840    -0.6160     0.0620 hn         1 SN6       0.160000
     48 H22          2.3990    -1.9740    -0.7920 ha         1 SN6       0.147500
     49 H23          4.7770    -2.6270    -0.9290 ha         1 SN6       0.131000
     50 H25          5.8560     0.8130     1.4570 ha         1 SN6       0.131000
     51 H26          3.5030     1.4720     1.5940 ha         1 SN6       0.147500
     52 HN7          6.9870    -2.3340     0.0900 hn         1 SN6       0.364000
     53 H29          7.0630     1.1960    -0.6390 ha         1 SN6       0.237500
     54 H30          9.2210     2.4530    -0.9640 h4         1 SN6       0.245000
     55 H32         11.4160    -1.0830     0.1530 h4         1 SN6       0.245000
     56 H33          9.2420    -2.3110     0.4860 ha         1 SN6       0.237500
     57 H341        12.0470     1.3810    -1.5920 h1         1 SN6       0.088367
     58 H342        11.5520     2.5550    -0.3410 h1         1 SN6       0.088367
     59 H343        12.4580     1.0960     0.1230 h1         1 SN6       0.088367
     60 H351        -9.7830    -2.9520     0.7690 h1         1 SN6       0.085033
     61 H352        -9.0030    -3.4540    -0.7640 h1         1 SN6       0.085033
     62 H353        -8.3990    -4.0730     0.7920 h1         1 SN6       0.085033
@<TRIPOS>BOND
     1     1     2 ar  
     2     1     6 ar  
     3     1    36 1   
     4     2     3 ar  
     5     2    37 1   
     6     3     4 ar  
     7     3     7 1   
     8     4     5 ar  
     9     4    10 ar  
    10     5     6 ar  
    11     5    38 1   
    12     6    39 1   
    13     7     8 2   
    14     7    35 1   
    15     8     9 ar  
    16     8    40 1   
    17     9    10 ar  
    18     9    41 1   
    19    10    11 1   
    20    11    12 1   
    21    11    42 1   
    22    12    13 ar  
    23    12    17 ar  
    24    13    14 ar  
    25    13    43 1   
    26    14    15 ar  
    27    14    44 1   
    28    15    16 ar  
    29    15    18 1   
    30    16    17 ar  
    31    16    45 1   
    32    17    46 1   
    33    18    19 2   
    34    18    20 1   
    35    20    21 1   
    36    20    47 1   
    37    21    22 ar  
    38    21    26 ar  
    39    22    23 ar  
    40    22    48 1   
    41    23    24 ar  
    42    23    49 1   
    43    24    25 ar  
    44    24    27 1   
    45    25    26 ar  
    46    25    50 1   
    47    26    51 1   
    48    27    28 2   
    49    27    52 1   
    50    28    29 1   
    51    28    33 1   
    52    29    30 2   
    53    29    53 1   
    54    30    31 1   
    55    30    54 1   
    56    31    32 1   
    57    31    34 1   
    58    32    33 2   
    59    32    55 1   
    60    33    56 1   
    61    34    57 1   
    62    34    58 1   
    63    34    59 1   
    64    35    60 1   
    65    35    61 1   
    66    35    62 1   
@<TRIPOS>SUBSTRUCTURE
     1 SN6         1 TEMP              0 ****  ****    0 ROOT
