@<TRIPOS>MOLECULE
SN6
   62    66     1     0     0
SMALL
bcc


@<TRIPOS>ATOM
      1 C1          -9.8700     0.5820    -1.0980 ca         1 SN6      -0.034000
      2 C2          -9.5090    -0.5050    -0.3430 ca         1 SN6      -0.158000
      3 C3          -8.1740    -0.6730     0.0550 ca         1 SN6       0.056700
      4 C4          -7.2030     0.2840    -0.3160 ca         1 SN6      -0.132000
      5 C5          -7.6090     1.3770    -1.1050 ca         1 SN6      -0.082000
      6 C6          -8.9160     1.5290    -1.4890 ca         1 SN6      -0.108000
      7 N7          -7.8050    -1.7700     0.8000 na         1 SN6      -0.030100
      8 C8          -6.5370    -1.9290     1.1660 ca         1 SN6       0.062700
      9 C9          -5.5420    -1.0440     0.8470 ca         1 SN6      -0.292000
     10 C10         -5.8390     0.1020     0.1080 ca         1 SN6       0.328600
     11 N11         -4.9150     1.0250    -0.1900 nu         1 SN6      -0.589000
     12 C12         -3.5290     0.9300     0.0290 ca         1 SN6       0.118600
     13 C13         -2.8680     2.0060     0.6130 ca         1 SN6      -0.139500
     14 C14         -1.5020     1.9480     0.8180 ca         1 SN6      -0.064000
     15 C15         -0.7720     0.8250     0.4340 ca         1 SN6      -0.144600
     16 C16         -1.4430    -0.2430    -0.1570 ca         1 SN6      -0.064000
     17 C17         -2.8100    -0.1920    -0.3690 ca         1 SN6      -0.139500
     18 C18          0.6910     0.8050     0.7330 c          1 SN6       0.690700
     19 O19          1.1510     1.4600     1.6510 o          1 SN6      -0.551100
     20 N20          1.4370     0.0240    -0.0890 ns         1 SN6      -0.467100
     21 C21          2.7990    -0.2740    -0.0200 ca         1 SN6       0.098600
     22 C22          3.3020    -1.1270    -1.0070 ca         1 SN6      -0.151500
     23 C23          4.6350    -1.4870    -1.0240 ca         1 SN6      -0.093000
     24 C24          5.4980    -1.0170    -0.0400 ca         1 SN6      -0.078200
     25 C25          5.0010    -0.1830     0.9520 ca         1 SN6      -0.093000
     26 C26          3.6690     0.2030     0.9620 ca         1 SN6      -0.151500
     27 N27          6.8450    -1.4390    -0.0390 nu         1 SN6      -0.265200
     28 C28          7.9260    -0.6530     0.0040 cc         1 SN6       0.444900
     29 C29          7.8690     0.7560    -0.0600 cc         1 SN6      -0.325100
     30 C30          9.0210     1.4820    -0.0120 cd         1 SN6       0.122500
     31 N31         10.2300     0.9020     0.1000 na         1 SN6      -0.417200
     32 C32         10.3160    -0.4410     0.1480 cd         1 SN6       0.122500
     33 C33          9.2100    -1.2320     0.1020 cc         1 SN6      -0.325100
     34 C34         11.4410     1.7200     0.1070 c3         1 SN6       0.173100
     35 C35         -8.8000    -2.7630     1.1990 c3         1 SN6      -0.002400
     36 H1         -10.9020     0.7000    -1.3990 ha         1 SN6       0.171000
     37 H2         -10.2640    -1.2250    -0.0640 ha         1 SN6       0.165000
     38 H5          -6.8940     2.1150    -1.4410 ha         1 SN6       0.145000
     39 H6          -9.2050     2.3750    -2.0960 ha         1 SN6       0.171000
     40 H8          -6.3130    -2.8050     1.7570 h4         1 SN6       0.188000
     41 H9          -4.5510    -1.2470     1.2190 ha         1 SN6       0.187000
     42 HN1         -5.2340     1.9250    -0.5130 hn         1 SN6       0.468800
     43 H13         -3.4250     2.8830     0.9190 ha         1 SN6       0.154500
     44 H14         -1.0030     2.7870     1.2840 ha         1 SN6       0.160500
     45 H16         -0.9200    -1.1430    -0.4530 ha         1 SN6       0.160500
     46 H17         -3.3060    -1.0240    -0.8500 ha         1 SN6       0.154500
     47 HN2          0.9650    -0.3790    -0.8840 hn         1 SN6       0.326500
     48 H22          2.6430    -1.5130    -1.7750 ha         1 SN6       0.165500
     49 H23          5.0040    -2.1400    -1.8040 ha         1 SN6       0.149000
     50 H25          5.6480     0.1710     1.7440 ha         1 SN6       0.149000
     51 H26          3.3240     0.8540     1.7470 ha         1 SN6       0.165500
     52 HN7          7.0050    -2.4340    -0.0940 hn         1 SN6       0.313700
     53 H29          6.9340     1.2870    -0.1580 ha         1 SN6       0.187500
     54 H30          9.0060     2.5600    -0.0650 h4         1 SN6       0.195000
     55 H32         11.3080    -0.8600     0.2330 h4         1 SN6       0.195000
     56 H33          9.3320    -2.3050     0.1490 ha         1 SN6       0.187500
     57 H341        11.7800     1.8910    -0.9120 h1         1 SN6       0.088367
     58 H342        11.2320     2.6710     0.5860 h1         1 SN6       0.088367
     59 H343        12.2180     1.2080     0.6660 h1         1 SN6       0.088367
     60 H351        -9.5630    -2.3020     1.8220 h1         1 SN6       0.085033
     61 H352        -9.2620    -3.2100     0.3220 h1         1 SN6       0.085033
     62 H353        -8.3060    -3.5410     1.7690 h1         1 SN6       0.085033
@<TRIPOS>BOND
     1     1     2 ar  
     2     1     6 ar  
     3     1    36 1   
     4     2     3 ar  
     5     2    37 1   
     6     3     4 ar  
     7     3     7 1   
     8     4     5 ar  
     9     4    10 ar  
    10     5     6 ar  
    11     5    38 1   
    12     6    39 1   
    13     7     8 2   
    14     7    35 1   
    15     8     9 ar  
    16     8    40 1   
    17     9    10 ar  
    18     9    41 1   
    19    10    11 1   
    20    11    12 1   
    21    11    42 1   
    22    12    13 ar  
    23    12    17 ar  
    24    13    14 ar  
    25    13    43 1   
    26    14    15 ar  
    27    14    44 1   
    28    15    16 ar  
    29    15    18 1   
    30    16    17 ar  
    31    16    45 1   
    32    17    46 1   
    33    18    19 2   
    34    18    20 1   
    35    20    21 1   
    36    20    47 1   
    37    21    22 ar  
    38    21    26 ar  
    39    22    23 ar  
    40    22    48 1   
    41    23    24 ar  
    42    23    49 1   
    43    24    25 ar  
    44    24    27 1   
    45    25    26 ar  
    46    25    50 1   
    47    26    51 1   
    48    27    28 2   
    49    27    52 1   
    50    28    29 1   
    51    28    33 1   
    52    29    30 2   
    53    29    53 1   
    54    30    31 1   
    55    30    54 1   
    56    31    32 1   
    57    31    34 1   
    58    32    33 2   
    59    32    55 1   
    60    33    56 1   
    61    34    57 1   
    62    34    58 1   
    63    34    59 1   
    64    35    60 1   
    65    35    61 1   
    66    35    62 1   
@<TRIPOS>SUBSTRUCTURE
     1 SN6         1 TEMP              0 ****  ****    0 ROOT
