@<TRIPOS>MOLECULE
SN7
   66    70     1     0     0
SMALL
No Charge or Current Charge


@<TRIPOS>ATOM
      1 C1          -9.4760    -1.1000    -1.0440 ca         1 SN7      -0.092000
      2 C2          -9.4200     0.1630    -0.4340 ca         1 SN7      -0.091000
      3 C3          -8.2030     0.6590     0.0930 ca         1 SN7      -0.058000
      4 C4          -7.0330    -0.1490     0.0090 ca         1 SN7      -0.063000
      5 C5          -7.1140    -1.4180    -0.6230 ca         1 SN7      -0.187000
      6 C6          -8.3240    -1.8880    -1.1450 ca         1 SN7       0.342000
      7 N7          -8.1340     1.9350     0.6930 na         1 SN7       0.013300
      8 C8          -6.9320     2.3590     1.2610 ca         1 SN7       0.066700
      9 C9          -5.7750     1.5710     1.1870 ca         1 SN7      -0.268000
     10 C10         -5.8070     0.3260     0.5510 ca         1 SN7       0.452000
     11 N11         -4.6420    -0.4450     0.5280 nu         1 SN7      -0.929000
     12 C12         -3.2880    -0.1320     0.4670 ca         1 SN7       0.325000
     13 C13         -2.3520    -1.0790     0.8880 ca         1 SN7      -0.195000
     14 C14         -0.9790    -0.7990     0.8270 ca         1 SN7      -0.009000
     15 C15         -0.5150     0.4450     0.3280 ca         1 SN7      -0.249600
     16 C16         -1.4790     1.3830    -0.1070 ca         1 SN7       0.406000
     17 C17         -2.8450     1.0920    -0.0400 ca         1 SN7      -0.232000
     18 C18          0.9750     0.7430     0.2760 c          1 SN7       0.642700
     19 O19          1.4100     1.8830     0.1390 o          1 SN7      -0.594100
     20 N20          1.8090    -0.3610     0.4170 ns         1 SN7      -0.140000
     21 C21          3.2240    -0.4920     0.4790 ca         1 SN7       0.006000
     22 C22          3.7620    -1.7910     0.4140 ca         1 SN7      -0.129500
     23 C23          5.1510    -2.0000     0.4740 ca         1 SN7      -0.077500
     24 C24          6.0280    -0.9080     0.5960 ca         1 SN7      -0.078200
     25 C25          5.4960     0.3920     0.6860 ca         1 SN7      -0.077500
     26 C26          4.1060     0.6010     0.6250 ca         1 SN7      -0.129500
     27 N27          7.4120    -1.1330     0.6710 nu         1 SN7      -0.313500
     28 C28          8.4970    -0.4770     0.1290 cc         1 SN7       0.444900
     29 C29          8.3520     0.4890    -0.8820 cc         1 SN7      -0.375100
     30 C30          9.4370     1.1370    -1.4310 cd         1 SN7       0.071500
     31 N31         10.7330     0.8070    -0.9550 na         1 SN7      -0.417200
     32 C32         10.9100    -0.1730     0.0570 cd         1 SN7       0.071500
     33 C33          9.7920    -0.7940     0.5710 cc         1 SN7      -0.375100
     34 C34         11.9190     1.4960    -1.5220 c3         1 SN7       0.174100
     35 C35         -9.2900     2.8580     0.6920 c3         1 SN7       0.023900
     36 N36         -8.3710    -3.1170    -1.7480 nv         1 SN7      -1.066000
     37 N37         -1.1260     2.5900    -0.6300 nv         1 SN7      -1.075000
     38 H1         -10.4180    -1.4640    -1.4430 ha         1 SN7       0.148000
     39 H2         -10.3400     0.7410    -0.3820 ha         1 SN7       0.143000
     40 H5          -6.2360    -2.0490    -0.7220 ha         1 SN7       0.123000
     41 H8          -6.9200     3.3250     1.7690 h4         1 SN7       0.169000
     42 H9          -4.8600     1.9220     1.6520 ha         1 SN7       0.167000
     43 HN1         -4.8290    -1.4450     0.5640 hn         1 SN7       0.522000
     44 H13         -2.6860    -2.0360     1.2790 ha         1 SN7       0.134000
     45 H14         -0.2920    -1.5610     1.1920 ha         1 SN7       0.126000
     46 H17         -3.5650     1.8150    -0.4060 ha         1 SN7       0.129000
     47 HN2          1.3180    -1.2420     0.4800 hn         1 SN7       0.163000
     48 H22          3.1010    -2.6500     0.3120 ha         1 SN7       0.145500
     49 H23          5.5420    -3.0140     0.4180 ha         1 SN7       0.130000
     50 H25          6.1560     1.2470     0.8180 ha         1 SN7       0.130000
     51 H26          3.7380     1.6180     0.7100 ha         1 SN7       0.145500
     52 HN7          7.6790    -2.0170     1.0900 hn         1 SN7       0.364000
     53 H29          7.3560     0.7110    -1.2460 ha         1 SN7       0.237500
     54 H30          9.3570     1.8910    -2.2150 h4         1 SN7       0.244500
     55 H32         11.9270    -0.3910     0.3860 h4         1 SN7       0.244500
     56 H33          9.9050    -1.5430     1.3490 ha         1 SN7       0.237500
     57 H341        12.7960     0.8360    -1.4950 h1         1 SN7       0.088033
     58 H342        11.7350     1.7820    -2.5650 h1         1 SN7       0.088033
     59 H343        12.1380     2.4000    -0.9390 h1         1 SN7       0.088033
     60 H351        -9.6360     3.0150    -0.3370 h1         1 SN7       0.083700
     61 H352       -10.1030     2.4310     1.2920 h1         1 SN7       0.083700
     62 H353        -9.0110     3.8290     1.1180 h1         1 SN7       0.083700
     63 H361        -9.2000    -3.3920    -2.2740 hn         1 SN7       0.485500
     64 H362        -7.5060    -3.6080    -1.9650 hn         1 SN7       0.485500
     65 H371        -1.8200     3.3320    -0.6780 hn         1 SN7       0.495000
     66 H372        -0.1520     2.8770    -0.5060 hn         1 SN7       0.495000
@<TRIPOS>BOND
     1     1     2 ar  
     2     1     6 ar  
     3     1    38 1   
     4     2     3 ar  
     5     2    39 1   
     6     3     4 ar  
     7     3     7 1   
     8     4     5 ar  
     9     4    10 ar  
    10     5     6 ar  
    11     5    40 1   
    12     6    36 1   
    13     7     8 2   
    14     7    35 1   
    15     8     9 ar  
    16     8    41 1   
    17     9    10 ar  
    18     9    42 1   
    19    10    11 1   
    20    11    12 1   
    21    11    43 1   
    22    12    13 ar  
    23    12    17 ar  
    24    13    14 ar  
    25    13    44 1   
    26    14    15 ar  
    27    14    45 1   
    28    15    16 ar  
    29    15    18 1   
    30    16    17 ar  
    31    16    37 1   
    32    17    46 1   
    33    18    19 2   
    34    18    20 1   
    35    20    21 1   
    36    20    47 1   
    37    21    22 ar  
    38    21    26 ar  
    39    22    23 ar  
    40    22    48 1   
    41    23    24 ar  
    42    23    49 1   
    43    24    25 ar  
    44    24    27 1   
    45    25    26 ar  
    46    25    50 1   
    47    26    51 1   
    48    27    28 2   
    49    27    52 1   
    50    28    29 1   
    51    28    33 1   
    52    29    30 2   
    53    29    53 1   
    54    30    31 1   
    55    30    54 1   
    56    31    32 1   
    57    31    34 1   
    58    32    33 2   
    59    32    55 1   
    60    33    56 1   
    61    34    57 1   
    62    34    58 1   
    63    34    59 1   
    64    35    60 1   
    65    35    61 1   
    66    35    62 1   
    67    36    63 1   
    68    36    64 1   
    69    37    65 1   
    70    37    66 1   
@<TRIPOS>SUBSTRUCTURE
     1 SN7         1 TEMP              0 ****  ****    0 ROOT
