@<TRIPOS>MOLECULE
SN7
   66    70     1     0     0
SMALL
abcg2


@<TRIPOS>ATOM
      1 C1          -9.5270    -0.9710    -0.5690 ca         1 SN7      -0.092000
      2 C2          -9.3040     0.3040    -0.1320 ca         1 SN7      -0.091000
      3 C3          -8.0010     0.7490     0.1500 ca         1 SN7      -0.058000
      4 C4          -6.9220    -0.1410    -0.0330 ca         1 SN7      -0.063000
      5 C5          -7.1750    -1.4380    -0.5050 ca         1 SN7      -0.187000
      6 C6          -8.4610    -1.8800    -0.7670 ca         1 SN7       0.342000
      7 N7          -7.7760     2.0340     0.5890 na         1 SN7       0.013300
      8 C8          -6.5400     2.4440     0.8420 ca         1 SN7       0.066700
      9 C9          -5.4390     1.6380     0.6860 ca         1 SN7      -0.268000
     10 C10         -5.5880     0.3240     0.2510 ca         1 SN7       0.452000
     11 N11         -4.5490    -0.5200     0.1150 nu         1 SN7      -0.929000
     12 C12         -3.1800    -0.2160     0.1670 ca         1 SN7       0.325000
     13 C13         -2.3340    -1.1100     0.8250 ca         1 SN7      -0.195000
     14 C14         -0.9820    -0.8500     0.8360 ca         1 SN7      -0.009000
     15 C15         -0.4300     0.2800     0.2270 ca         1 SN7      -0.249600
     16 C16         -1.2930     1.1960    -0.4210 ca         1 SN7       0.406000
     17 C17         -2.6660     0.9030    -0.4600 ca         1 SN7      -0.232000
     18 C18          1.0300     0.5350     0.2940 c          1 SN7       0.642700
     19 O19          1.5000     1.6640     0.3160 o          1 SN7      -0.594100
     20 N20          1.8050    -0.5830     0.3200 ns         1 SN7      -0.140000
     21 C21          3.1940    -0.6710     0.4270 ca         1 SN7       0.006000
     22 C22          3.7820    -1.8810     0.0500 ca         1 SN7      -0.129500
     23 C23          5.1490    -2.0630     0.1330 ca         1 SN7      -0.077500
     24 C24          5.9610    -1.0430     0.6130 ca         1 SN7      -0.078200
     25 C25          5.3790     0.1510     1.0190 ca         1 SN7      -0.077500
     26 C26          4.0110     0.3480     0.9190 ca         1 SN7      -0.129500
     27 N27          7.3510    -1.2590     0.7230 nu         1 SN7      -0.313500
     28 C28          8.3220    -0.4840     0.2270 cc         1 SN7       0.444900
     29 C29          8.0820     0.6590    -0.5640 cc         1 SN7      -0.375100
     30 C30          9.1340     1.3860    -1.0390 cd         1 SN7       0.071500
     31 N31         10.4100     1.0530    -0.7810 na         1 SN7      -0.417200
     32 C32         10.6700    -0.0380    -0.0340 cd         1 SN7       0.071500
     33 C33          9.6740    -0.8130     0.4730 cc         1 SN7      -0.375100
     34 C34         11.5110     1.8850    -1.2620 c3         1 SN7       0.174100
     35 C35         -8.8940     2.9550     0.7720 c3         1 SN7       0.023900
     36 N36         -8.7230    -3.1560    -1.1670 nv         1 SN7      -1.066000
     37 N37         -0.8430     2.2970    -1.0780 nv         1 SN7      -1.075000
     38 H1         -10.5420    -1.2890    -0.7720 ha         1 SN7       0.148000
     39 H2         -10.1520     0.9610    -0.0080 ha         1 SN7       0.143000
     40 H5          -6.3620    -2.1260    -0.6900 ha         1 SN7       0.123000
     41 H8          -6.4290     3.4580     1.1970 h4         1 SN7       0.169000
     42 H9          -4.4760     2.0480     0.9450 ha         1 SN7       0.167000
     43 HN1         -4.7560    -1.5060     0.0640 hn         1 SN7       0.522000
     44 H13         -2.7340    -1.9800     1.3290 ha         1 SN7       0.134000
     45 H14         -0.3390    -1.5380     1.3720 ha         1 SN7       0.126000
     46 H17         -3.3170     1.5680    -1.0140 ha         1 SN7       0.129000
     47 HN2          1.3450    -1.4550     0.1070 hn         1 SN7       0.163000
     48 H22          3.1650    -2.6870    -0.3270 ha         1 SN7       0.145500
     49 H23          5.5840    -3.0030    -0.1810 ha         1 SN7       0.130000
     50 H25          5.9890     0.9430     1.4350 ha         1 SN7       0.130000
     51 H26          3.5990     1.2860     1.2500 ha         1 SN7       0.145500
     52 HN7          7.6390    -2.1130     1.1780 hn         1 SN7       0.364000
     53 H29          7.0840     0.9770    -0.8240 ha         1 SN7       0.237500
     54 H30          8.9770     2.2620    -1.6510 h4         1 SN7       0.244500
     55 H32         11.7100    -0.2670     0.1430 h4         1 SN7       0.244500
     56 H33          9.9360    -1.6820     1.0600 ha         1 SN7       0.237500
     57 H341        12.3160     1.2490    -1.6190 h1         1 SN7       0.088033
     58 H342        11.1600     2.5030    -2.0820 h1         1 SN7       0.088033
     59 H343        11.8760     2.5200    -0.4590 h1         1 SN7       0.088033
     60 H351        -9.3960     3.1330    -0.1770 h1         1 SN7       0.083700
     61 H352        -9.6030     2.5510     1.4910 h1         1 SN7       0.083700
     62 H353        -8.5120     3.8970     1.1500 h1         1 SN7       0.083700
     63 H361        -9.5930    -3.3230    -1.6450 hn         1 SN7       0.485500
     64 H362        -7.9560    -3.7010    -1.5250 hn         1 SN7       0.485500
     65 H371        -1.5270     2.9870    -1.3380 hn         1 SN7       0.495000
     66 H372         0.0550     2.6680    -0.8190 hn         1 SN7       0.495000
@<TRIPOS>BOND
     1     1     2 ar  
     2     1     6 ar  
     3     1    38 1   
     4     2     3 ar  
     5     2    39 1   
     6     3     4 ar  
     7     3     7 1   
     8     4     5 ar  
     9     4    10 ar  
    10     5     6 ar  
    11     5    40 1   
    12     6    36 1   
    13     7     8 2   
    14     7    35 1   
    15     8     9 ar  
    16     8    41 1   
    17     9    10 ar  
    18     9    42 1   
    19    10    11 1   
    20    11    12 1   
    21    11    43 1   
    22    12    13 ar  
    23    12    17 ar  
    24    13    14 ar  
    25    13    44 1   
    26    14    15 ar  
    27    14    45 1   
    28    15    16 ar  
    29    15    18 1   
    30    16    17 ar  
    31    16    37 1   
    32    17    46 1   
    33    18    19 2   
    34    18    20 1   
    35    20    21 1   
    36    20    47 1   
    37    21    22 ar  
    38    21    26 ar  
    39    22    23 ar  
    40    22    48 1   
    41    23    24 ar  
    42    23    49 1   
    43    24    25 ar  
    44    24    27 1   
    45    25    26 ar  
    46    25    50 1   
    47    26    51 1   
    48    27    28 2   
    49    27    52 1   
    50    28    29 1   
    51    28    33 1   
    52    29    30 2   
    53    29    53 1   
    54    30    31 1   
    55    30    54 1   
    56    31    32 1   
    57    31    34 1   
    58    32    33 2   
    59    32    55 1   
    60    33    56 1   
    61    34    57 1   
    62    34    58 1   
    63    34    59 1   
    64    35    60 1   
    65    35    61 1   
    66    35    62 1   
    67    36    63 1   
    68    36    64 1   
    69    37    65 1   
    70    37    66 1   
@<TRIPOS>SUBSTRUCTURE
     1 SN7         1 TEMP              0 ****  ****    0 ROOT
