@<TRIPOS>MOLECULE
SNB
   33    35     1     0     0
SMALL
abcg2


@<TRIPOS>ATOM
      1 CL           1.9710    -2.7040    -1.3570 cl         1 SNB      -0.177000
      2 C16          2.1910    -1.1580    -0.6170 ca         1 SNB       0.065000
      3 C2           3.4170    -0.8700    -0.0040 ca         1 SNB       0.170100
      4 O            4.3400    -1.8310    -0.0240 os         1 SNB      -0.320100
      5 C1           5.5940    -1.5860     0.5920 c3         1 SNB       0.146900
      6 C15          1.1700    -0.2320    -0.6400 ca         1 SNB      -0.032000
      7 C14          1.3440     1.0180    -0.0490 ca         1 SNB      -0.218900
      8 C4           2.5720     1.3270     0.5400 ca         1 SNB      -0.016300
      9 C3           3.5910     0.3890     0.5680 ca         1 SNB      -0.199000
     10 C7           0.3030     2.0640    -0.0650 ce         1 SNB       0.523500
     11 N            0.5550     3.3010     0.0890 n2         1 SNB      -0.575900
     12 C6           1.9350     3.6920     0.3010 c6         1 SNB       0.102800
     13 C5           2.7210     2.6940     1.1350 c6         1 SNB      -0.064100
     14 C8          -1.1140     1.6830    -0.2950 ca         1 SNB      -0.131900
     15 C13         -1.6750     0.6000     0.3790 ca         1 SNB      -0.069000
     16 C12         -3.0120     0.2910     0.1790 ca         1 SNB      -0.025900
     17 BR          -3.7680    -1.1690     1.1090 br         1 SNB      -0.097100
     18 C11         -3.8030     1.0290    -0.6880 ca         1 SNB      -0.075000
     19 C10         -3.2350     2.1060    -1.3550 ca         1 SNB      -0.117000
     20 C9          -1.9050     2.4380    -1.1570 ca         1 SNB      -0.061000
     21 H15          0.2410    -0.4880    -1.1320 ha         1 SNB       0.140000
     22 H3           4.5310     0.6560     1.0340 ha         1 SNB       0.123000
     23 H11C         6.1270    -0.7650     0.1090 h1         1 SNB       0.046033
     24 H12C         5.4840    -1.3650     1.6560 h1         1 SNB       0.046033
     25 H13C         6.1720    -2.4990     0.4780 h1         1 SNB       0.046033
     26 H51C         2.3400     2.6890     2.1620 hc         1 SNB       0.062700
     27 H52C         3.7710     2.9860     1.1900 hc         1 SNB       0.062700
     28 H61C         2.4120     3.8210    -0.6780 h1         1 SNB       0.064200
     29 H62C         1.9440     4.6730     0.7780 h1         1 SNB       0.064200
     30 H13         -1.0730     0.0170     1.0650 ha         1 SNB       0.135000
     31 H9          -1.4710     3.2800    -1.6790 ha         1 SNB       0.131000
     32 H11         -4.8430     0.7770    -0.8490 ha         1 SNB       0.130000
     33 H10         -3.8420     2.6860    -2.0380 ha         1 SNB       0.120000
@<TRIPOS>BOND
     1     1     2 1   
     2     2     3 ar  
     3     2     6 ar  
     4     3     4 1   
     5     3     9 ar  
     6     4     5 1   
     7     5    23 1   
     8     5    24 1   
     9     5    25 1   
    10     6     7 ar  
    11     6    21 1   
    12     7     8 ar  
    13     7    10 1   
    14     8     9 ar  
    15     8    13 1   
    16     9    22 1   
    17    10    11 2   
    18    10    14 1   
    19    11    12 1   
    20    12    13 1   
    21    12    28 1   
    22    12    29 1   
    23    13    26 1   
    24    13    27 1   
    25    14    15 ar  
    26    14    20 ar  
    27    15    16 ar  
    28    15    30 1   
    29    16    17 1   
    30    16    18 ar  
    31    18    19 ar  
    32    18    32 1   
    33    19    20 ar  
    34    19    33 1   
    35    20    31 1   
@<TRIPOS>SUBSTRUCTURE
     1 SNB         1 TEMP              0 ****  ****    0 ROOT
