@<TRIPOS>MOLECULE
SNB
   33    35     1     0     0
SMALL
No Charge or Current Charge


@<TRIPOS>ATOM
      1 Cl           1.9500    -2.7710    -1.3940 cl         1 SNB      -0.177000
      2 C16          2.2090    -1.1980    -0.6370 ca         1 SNB       0.065000
      3 C2           3.4250    -0.9030     0.0150 ca         1 SNB       0.170100
      4 O            4.4100    -1.8750     0.0580 os         1 SNB      -0.320100
      5 C1           5.6790    -1.6590     0.6980 c3         1 SNB       0.146900
      6 C15          1.1850    -0.2390    -0.6990 ca         1 SNB      -0.032000
      7 C14          1.3480     1.0260    -0.0900 ca         1 SNB      -0.218900
      8 C4           2.5810     1.3330     0.5180 ca         1 SNB      -0.016300
      9 C3           3.6070     0.3750     0.5870 ca         1 SNB      -0.199000
     10 C7           0.2800     2.0870    -0.1560 ce         1 SNB       0.523500
     11 N            0.5710     3.3430     0.0300 n2         1 SNB      -0.575900
     12 C6           1.9690     3.7570     0.2650 c6         1 SNB       0.102800
     13 C5           2.7740     2.7300     1.0910 c6         1 SNB      -0.064100
     14 C8          -1.1530     1.6960    -0.3600 ca         1 SNB      -0.131900
     15 C13         -1.6910     0.5600     0.2870 ca         1 SNB      -0.069000
     16 C12         -3.0470     0.2250     0.1290 ca         1 SNB      -0.025900
     17 Br          -3.7490    -1.3270     0.9970 br         1 SNB      -0.097100
     18 C11         -3.8890     1.0300    -0.6540 ca         1 SNB      -0.075000
     19 C10         -3.3740     2.1820    -1.2710 ca         1 SNB      -0.117000
     20 C9          -2.0170     2.5190    -1.1160 ca         1 SNB      -0.061000
     21 H15          0.2690    -0.4870    -1.2300 ha         1 SNB       0.140000
     22 H3           4.5390     0.6420     1.0780 ha         1 SNB       0.123000
     23 H11C         6.2190    -0.8280     0.2260 h1         1 SNB       0.046033
     24 H12C         5.5450    -1.4330     1.7640 h1         1 SNB       0.046033
     25 H13C         6.3030    -2.5580     0.6180 h1         1 SNB       0.046033
     26 H51C         2.4340     2.7460     2.1350 hc         1 SNB       0.062700
     27 H52C         3.8360     3.0090     1.0970 hc         1 SNB       0.062700
     28 H61C         2.4570     3.8950    -0.7120 h1         1 SNB       0.064200
     29 H62C         1.9760     4.7310     0.7760 h1         1 SNB       0.064200
     30 H13         -1.0620    -0.0620     0.9200 ha         1 SNB       0.135000
     31 H9          -1.6350     3.4180    -1.5960 ha         1 SNB       0.131000
     32 H11         -4.9380     0.7700    -0.7730 ha         1 SNB       0.130000
     33 H10         -4.0260     2.8160    -1.8680 ha         1 SNB       0.120000
@<TRIPOS>BOND
     1     1     2 1   
     2     2     3 ar  
     3     2     6 ar  
     4     3     4 1   
     5     3     9 ar  
     6     4     5 1   
     7     5    23 1   
     8     5    24 1   
     9     5    25 1   
    10     6     7 ar  
    11     6    21 1   
    12     7     8 ar  
    13     7    10 1   
    14     8     9 ar  
    15     8    13 1   
    16     9    22 1   
    17    10    11 2   
    18    10    14 1   
    19    11    12 1   
    20    12    13 1   
    21    12    28 1   
    22    12    29 1   
    23    13    26 1   
    24    13    27 1   
    25    14    15 ar  
    26    14    20 ar  
    27    15    16 ar  
    28    15    30 1   
    29    16    17 1   
    30    16    18 ar  
    31    18    19 ar  
    32    18    32 1   
    33    19    20 ar  
    34    19    33 1   
    35    20    31 1   
@<TRIPOS>SUBSTRUCTURE
     1 SNB         1 TEMP              0 ****  ****    0 ROOT
