@<TRIPOS>MOLECULE
SND
   70    74     1     0     0
SMALL
No Charge or Current Charge


@<TRIPOS>ATOM
      1 PA           0.3560    -2.0990    -2.4580 p5         1 SND       1.462800
      2 O1A          1.1070    -2.9630    -3.4170 o          1 SND      -0.862500
      3 O2A         -0.6850    -1.2620    -3.1230 o          1 SND      -0.862500
      4 O5B          1.4260    -1.1450    -1.7190 os         1 SND      -0.554400
      5 C5B          1.0200    -0.0790    -0.8520 c3         1 SND       0.205600
      6 C4B          1.1970    -0.5140     0.6370 c5         1 SND       0.126300
      7 O4B          2.5600    -0.9490     0.8900 os         1 SND      -0.405000
      8 C3B          0.9810     0.6460     1.6590 c5         1 SND       0.106300
      9 O3B          0.7940     0.1960     3.0040 oh         1 SND      -0.705000
     10 C2B          2.3460     1.3830     1.5430 c5         1 SND       0.071300
     11 O2B          2.5880     2.2000     2.7080 oh         1 SND      -0.700000
     12 C1B          3.3370     0.1650     1.3910 c5         1 SND       0.321300
     13 N9A          4.5300     0.3420     0.5600 na         1 SND      -0.289300
     14 C8A          4.6250     1.1120    -0.6060 cc         1 SND       0.444700
     15 N7A          5.8770     1.0940    -1.1060 nd         1 SND      -0.575100
     16 C5A          6.5710     0.2770    -0.2090 ca         1 SND      -0.089600
     17 C6A          7.9260    -0.1170    -0.2140 ca         1 SND       0.437900
     18 N6A          8.8050     0.2830    -1.1710 nv         1 SND      -1.072900
     19 N1A          8.4180    -0.9260     0.7370 nb         1 SND      -0.317000
     20 C2A          7.5410    -1.3270     1.6900 ca         1 SND       0.157900
     21 N3A          6.2290    -0.9970     1.7740 nb         1 SND      -0.205000
     22 C4A          5.7660    -0.1880     0.8010 ca         1 SND       0.116500
     23 O3          -0.1530    -2.8750    -1.1830 os         1 SND      -0.674800
     24 PN          -1.3420    -3.8760    -1.4660 p5         1 SND       1.456800
     25 O1N         -1.2960    -4.5770    -2.7820 o          1 SND      -0.849500
     26 O2N         -1.4170    -4.8810    -0.3650 o          1 SND      -0.849500
     27 O5D         -2.6010    -2.8680    -1.3870 os         1 SND      -0.568400
     28 C5D         -3.3800    -2.6940    -0.1900 c3         1 SND       0.205600
     29 C4D         -2.5350    -2.0760     0.9680 c5         1 SND       0.149300
     30 O4D         -1.9930    -0.7890     0.5780 os         1 SND      -0.378000
     31 C3D         -3.3660    -1.7420     2.2440 c5         1 SND       0.112300
     32 O3D         -2.5490    -1.5100     3.3950 oh         1 SND      -0.698000
     33 C2D         -4.0490    -0.4130     1.8010 c5         1 SND       0.069300
     34 O2D         -4.4250     0.3810     2.9470 oh         1 SND      -0.716000
     35 C1D         -2.9410     0.2580     0.9080 c5         1 SND       0.284300
     36 N1N         -3.4280     0.9570    -0.2990 na         1 SND       0.013300
     37 C2N         -4.2360     2.1000    -0.1850 ca         1 SND      -0.060000
     38 C3N         -4.7120     2.8370    -1.2970 ca         1 SND      -0.169600
     39 C7N         -5.5760     4.0620    -1.0760 cs         1 SND       0.413000
     40 S7N         -6.0120     4.6190     0.4380 s          1 SND      -0.573400
     41 N7N         -6.0110     4.7340    -2.1590 nt         1 SND      -0.488000
     42 C4N         -4.3550     2.3930    -2.5900 ca         1 SND      -0.028000
     43 C5N         -3.5560     1.2500    -2.7370 ca         1 SND      -0.061000
     44 C6N         -3.1100     0.5500    -1.6060 ca         1 SND       0.107700
     45 H51A         1.6220     0.8120    -1.0590 h1         1 SND       0.020200
     46 H52A        -0.0300     0.1930    -1.0170 h1         1 SND       0.020200
     47 H4B          0.5130    -1.3490     0.8350 h1         1 SND       0.128700
     48 H3B          0.1480     1.2980     1.3590 h1         1 SND       0.048700
     49 HO3A         1.3100     0.8540     3.5320 ho         1 SND       0.506000
     50 H2B          2.3510     2.0110     0.6420 h1         1 SND       0.059700
     51 HO2A         3.3530     2.7930     2.5110 ho         1 SND       0.502000
     52 H1B          3.7100    -0.1050     2.3870 h2         1 SND       0.105700
     53 H8A          3.7810     1.6430    -1.0310 h5         1 SND       0.116800
     54 H61A         8.4070     0.7050    -2.0070 hn         1 SND       0.498500
     55 H62A         9.6600    -0.2530    -1.2930 hn         1 SND       0.498500
     56 H2A          7.9300    -1.9820     2.4670 h5         1 SND       0.032100
     57 H51N        -4.2380    -2.0480    -0.4080 h1         1 SND       0.021700
     58 H52N        -3.7840    -3.6590     0.1440 h1         1 SND       0.021700
     59 H4D         -1.7110    -2.7600     1.2130 h1         1 SND       0.129700
     60 H3D         -4.1080    -2.5250     2.4550 h1         1 SND       0.066700
     61 HO3N        -2.9090    -0.6660     3.7670 ho         1 SND       0.511000
     62 H2D         -4.9350    -0.6300     1.1850 h1         1 SND       0.073700
     63 HO2N        -5.3630     0.1640     3.1740 ho         1 SND       0.522000
     64 H1D         -2.4170     1.0240     1.4930 h2         1 SND       0.115700
     65 H2N         -4.4860     2.4050     0.8330 h4         1 SND       0.187000
     66 H71N        -5.7720     4.4310    -3.0900 hn         1 SND       0.333000
     67 H72N        -6.5890     5.5540    -2.0390 hn         1 SND       0.333000
     68 H4N         -4.6860     2.9130    -3.4860 ha         1 SND       0.137000
     69 H5N         -3.2790     0.9000    -3.7300 ha         1 SND       0.227000
     70 H6N         -2.4930    -0.3390    -1.7320 h4         1 SND       0.273000
@<TRIPOS>BOND
     1     1     2 1   
     2     1     3 1   
     3     1     4 1   
     4     1    23 1   
     5     4     5 1   
     6     5     6 1   
     7     5    45 1   
     8     5    46 1   
     9     6     7 1   
    10     6     8 1   
    11     6    47 1   
    12     7    12 1   
    13     8     9 1   
    14     8    10 1   
    15     8    48 1   
    16     9    49 1   
    17    10    11 1   
    18    10    12 1   
    19    10    50 1   
    20    11    51 1   
    21    12    13 1   
    22    12    52 1   
    23    13    14 1   
    24    13    22 1   
    25    14    15 2   
    26    14    53 1   
    27    15    16 1   
    28    16    17 ar  
    29    16    22 ar  
    30    17    18 1   
    31    17    19 ar  
    32    18    54 1   
    33    18    55 1   
    34    19    20 ar  
    35    20    21 ar  
    36    20    56 1   
    37    21    22 ar  
    38    23    24 1   
    39    24    25 1   
    40    24    26 1   
    41    24    27 1   
    42    27    28 1   
    43    28    29 1   
    44    28    57 1   
    45    28    58 1   
    46    29    30 1   
    47    29    31 1   
    48    29    59 1   
    49    30    35 1   
    50    31    32 1   
    51    31    33 1   
    52    31    60 1   
    53    32    61 1   
    54    33    34 1   
    55    33    35 1   
    56    33    62 1   
    57    34    63 1   
    58    35    36 1   
    59    35    64 1   
    60    36    37 1   
    61    36    44 2   
    62    37    38 ar  
    63    37    65 1   
    64    38    39 1   
    65    38    42 ar  
    66    39    40 2   
    67    39    41 1   
    68    41    66 1   
    69    41    67 1   
    70    42    43 ar  
    71    42    68 1   
    72    43    44 ar  
    73    43    69 1   
    74    44    70 1   
@<TRIPOS>SUBSTRUCTURE
     1 SND         1 TEMP              0 ****  ****    0 ROOT
