@<TRIPOS>MOLECULE
SND
   70    74     1     0     0
SMALL
bcc


@<TRIPOS>ATOM
      1 PA          -0.0100     0.3210    -1.8930 p5         1 SND       1.462800
      2 O1A         -0.5160     0.8210    -3.2090 o          1 SND      -0.862500
      3 O2A         -0.5120     0.9240    -0.6150 o          1 SND      -0.862500
      4 O5B          1.6370     0.3350    -1.9070 os         1 SND      -0.531200
      5 C5B          2.2940     1.5800    -1.9320 c3         1 SND       0.182400
      6 C4B          2.5030     2.1550    -0.5360 c5         1 SND       0.103100
      7 O4B          3.0290     1.1680     0.3570 os         1 SND      -0.358600
      8 C3B          3.5300     3.2750    -0.5430 c5         1 SND       0.083100
      9 O3B          3.3120     4.1000     0.5720 oh         1 SND      -0.582800
     10 C2B          4.8270     2.4760    -0.3860 c5         1 SND       0.048100
     11 O2B          5.8960     3.1950     0.1540 oh         1 SND      -0.577800
     12 C1B          4.3880     1.3760     0.5860 c5         1 SND       0.268800
     13 N9A          5.0930     0.1240     0.3970 na         1 SND      -0.260000
     14 C8A          4.8100    -0.8600    -0.5100 cc         1 SND       0.444700
     15 N7A          5.6500    -1.8530    -0.4710 nd         1 SND      -0.575100
     16 C5A          6.5390    -1.5090     0.5130 ca         1 SND      -0.220200
     17 C6A          7.6690    -2.1520     1.0500 ca         1 SND       0.766200
     18 N6A          8.1120    -3.3280     0.5980 nv         1 SND      -0.962500
     19 N1A          8.3240    -1.5430     2.0440 nb         1 SND      -0.843000
     20 C2A          7.8860    -0.3650     2.4820 ca         1 SND       0.683900
     21 N3A          6.8500     0.3370     2.0580 nb         1 SND      -0.731000
     22 C4A          6.2080    -0.2820     1.0700 ca         1 SND       0.444800
     23 O3          -0.0740    -1.3190    -1.8190 os         1 SND      -0.674800
     24 PN          -1.4160    -2.2390    -1.6510 p5         1 SND       1.456800
     25 O1N         -2.6150    -1.5550    -2.2290 o          1 SND      -0.849500
     26 O2N         -1.0420    -3.6240    -2.0700 o          1 SND      -0.849500
     27 O5D         -1.5060    -2.1730    -0.0030 os         1 SND      -0.545200
     28 C5D         -2.6450    -2.7440     0.5940 c3         1 SND       0.182400
     29 C4D         -2.8870    -2.0930     1.9440 c5         1 SND       0.126100
     30 O4D         -3.0030    -0.6640     1.8480 os         1 SND      -0.331600
     31 C3D         -4.2070    -2.5250     2.5580 c5         1 SND       0.089100
     32 O3D         -4.1570    -2.2930     3.9380 oh         1 SND      -0.575800
     33 C2D         -5.1800    -1.5560     1.8690 c5         1 SND       0.046100
     34 O2D         -6.3400    -1.2790     2.5960 oh         1 SND      -0.593800
     35 C1D         -4.3170    -0.2860     1.7500 c5         1 SND       0.231800
     36 N1N         -4.5560     0.4070     0.4380 na         1 SND      -0.008100
     37 C2N         -5.8090     0.8140     0.1850 ca         1 SND      -0.027300
     38 C3N         -6.1170     1.4540    -0.9920 ca         1 SND      -0.169600
     39 C7N         -7.5170     1.8930    -1.2300 cs         1 SND       0.480000
     40 S7N         -8.4910     2.3550     0.0320 s          1 SND      -0.573400
     41 N7N         -7.9010     1.9050    -2.4910 nt         1 SND      -0.555000
     42 C4N         -5.0870     1.6820    -1.9100 ca         1 SND      -0.046000
     43 C5N         -3.8050     1.2720    -1.6130 ca         1 SND      -0.079000
     44 C6N         -3.5540     0.6290    -0.4170 ca         1 SND       0.089700
     45 H51A         3.2550     1.4200    -2.4300 h1         1 SND       0.020200
     46 H52A         1.7540     2.3230    -2.5330 h1         1 SND       0.020200
     47 H4B          1.5450     2.4870    -0.1320 h1         1 SND       0.128700
     48 H3B          3.5110     3.8450    -1.4820 h1         1 SND       0.048700
     49 HO3A         4.1370     4.5620     0.7630 ho         1 SND       0.407000
     50 H2B          5.0940     2.0260    -1.3500 h1         1 SND       0.059700
     51 HO2A         6.3530     3.6520    -0.5590 ho         1 SND       0.403000
     52 H1B          4.5800     1.6860     1.6190 h2         1 SND       0.105700
     53 H8A          3.9500    -0.8030    -1.1610 h5         1 SND       0.116800
     54 H61A         7.5880    -3.8470    -0.0840 hn         1 SND       0.443300
     55 H62A         8.8640    -3.7980     1.0730 hn         1 SND       0.443300
     56 H2A          8.4590     0.0720     3.2930 h5         1 SND       0.032100
     57 H51N        -3.5260    -2.6340    -0.0510 h1         1 SND       0.021700
     58 H52N        -2.5080    -3.8180     0.7650 h1         1 SND       0.021700
     59 H4D         -2.0420    -2.2940     2.6070 h1         1 SND       0.129700
     60 H3D         -4.4530    -3.5670     2.3210 h1         1 SND       0.066700
     61 HO3N        -5.0620    -2.2470     4.2670 ho         1 SND       0.412000
     62 H2D         -5.4170    -1.9400     0.8700 h1         1 SND       0.073700
     63 HO2N        -7.0160    -1.9260     2.3680 ho         1 SND       0.423000
     64 H1D         -4.5700     0.4550     2.5150 h2         1 SND       0.115700
     65 H2N         -6.5560     0.6220     0.9420 h4         1 SND       0.205000
     66 H71N        -7.3350     1.5390    -3.2420 hn         1 SND       0.333000
     67 H72N        -8.8270     2.2200    -2.7340 hn         1 SND       0.333000
     68 H4N         -5.2780     2.2030    -2.8390 ha         1 SND       0.155000
     69 H5N         -2.9820     1.4310    -2.2940 ha         1 SND       0.245000
     70 H6N         -2.5550     0.3320    -0.1360 h4         1 SND       0.291000
@<TRIPOS>BOND
     1     1     2 1   
     2     1     3 1   
     3     1     4 1   
     4     1    23 1   
     5     4     5 1   
     6     5     6 1   
     7     5    45 1   
     8     5    46 1   
     9     6     7 1   
    10     6     8 1   
    11     6    47 1   
    12     7    12 1   
    13     8     9 1   
    14     8    10 1   
    15     8    48 1   
    16     9    49 1   
    17    10    11 1   
    18    10    12 1   
    19    10    50 1   
    20    11    51 1   
    21    12    13 1   
    22    12    52 1   
    23    13    14 1   
    24    13    22 1   
    25    14    15 2   
    26    14    53 1   
    27    15    16 1   
    28    16    17 ar  
    29    16    22 ar  
    30    17    18 1   
    31    17    19 ar  
    32    18    54 1   
    33    18    55 1   
    34    19    20 ar  
    35    20    21 ar  
    36    20    56 1   
    37    21    22 ar  
    38    23    24 1   
    39    24    25 1   
    40    24    26 1   
    41    24    27 1   
    42    27    28 1   
    43    28    29 1   
    44    28    57 1   
    45    28    58 1   
    46    29    30 1   
    47    29    31 1   
    48    29    59 1   
    49    30    35 1   
    50    31    32 1   
    51    31    33 1   
    52    31    60 1   
    53    32    61 1   
    54    33    34 1   
    55    33    35 1   
    56    33    62 1   
    57    34    63 1   
    58    35    36 1   
    59    35    64 1   
    60    36    37 1   
    61    36    44 2   
    62    37    38 ar  
    63    37    65 1   
    64    38    39 1   
    65    38    42 ar  
    66    39    40 2   
    67    39    41 1   
    68    41    66 1   
    69    41    67 1   
    70    42    43 ar  
    71    42    68 1   
    72    43    44 ar  
    73    43    69 1   
    74    44    70 1   
@<TRIPOS>SUBSTRUCTURE
     1 SND         1 TEMP              0 ****  ****    0 ROOT
