@<TRIPOS>MOLECULE
SNE
   26    27     1     0     0
SMALL
abcg2


@<TRIPOS>ATOM
      1 C6           3.0460     0.9250    -0.0660 c2         1 SNE      -0.319000
      2 C1           1.9270     0.2080     0.0120 c2         1 SNE      -0.086400
      3 C7           0.7370     0.5400     0.8210 cx         1 SNE      -0.099500
      4 C9           0.0850    -0.6050     1.5680 cx         1 SNE      -0.108400
      5 C4           1.6090    -1.0380    -0.7770 c5         1 SNE      -0.051200
      6 C3           0.0790    -1.0220    -0.9360 c5         1 SNE      -0.045400
      7 C8          -0.4430    -0.1990     0.2350 cx         1 SNE      -0.104000
      8 C2          -1.8050     0.4560     0.1500 c3         1 SNE      -0.020700
      9 C           -1.8770     1.4880    -0.9720 c3         1 SNE      -0.083600
     10 C5          -2.9120    -0.5880     0.0240 c3         1 SNE      -0.083600
     11 H1           3.1930     1.8130     0.5360 ha         1 SNE       0.164000
     12 H2           3.8500     0.6480    -0.7370 ha         1 SNE       0.164000
     13 H4           0.6310     1.5400     1.2250 hc         1 SNE       0.090700
     14 H5           0.6240    -1.5390     1.6810 hc         1 SNE       0.072200
     15 H6          -0.4990    -0.3300     2.4390 hc         1 SNE       0.072200
     16 H7           2.1340    -1.0720    -1.7320 hc         1 SNE       0.050200
     17 H8          -0.1910    -0.5350    -1.8770 hc         1 SNE       0.047700
     18 H9          -0.3420    -2.0290    -0.9630 hc         1 SNE       0.047700
     19 H10         -1.9580     0.9890     1.0950 hc         1 SNE       0.043700
     20 H11         -1.0690     2.2170    -0.8880 hc         1 SNE       0.033200
     21 H12         -1.8090     1.0240    -1.9580 hc         1 SNE       0.033200
     22 H13         -2.8230     2.0320    -0.9380 hc         1 SNE       0.033200
     23 H14         -2.8720    -1.3050     0.8460 hc         1 SNE       0.033200
     24 H15         -3.8970    -0.1180     0.0370 hc         1 SNE       0.033200
     25 H16         -2.8290    -1.1470    -0.9100 hc         1 SNE       0.033200
     26 H3           1.9270    -1.9230    -0.2180 hc         1 SNE       0.050200
@<TRIPOS>BOND
     1     1     2 2   
     2     1    11 1   
     3     1    12 1   
     4     2     3 1   
     5     2     5 1   
     6     3     4 1   
     7     3     7 1   
     8     3    13 1   
     9     4     7 1   
    10     4    14 1   
    11     4    15 1   
    12     5     6 1   
    13     5    16 1   
    14     5    26 1   
    15     6     7 1   
    16     6    17 1   
    17     6    18 1   
    18     7     8 1   
    19     8     9 1   
    20     8    10 1   
    21     8    19 1   
    22     9    20 1   
    23     9    21 1   
    24     9    22 1   
    25    10    23 1   
    26    10    24 1   
    27    10    25 1   
@<TRIPOS>SUBSTRUCTURE
     1 SNE         1 TEMP              0 ****  ****    0 ROOT
