@<TRIPOS>MOLECULE
SNE
   26    27     1     0     0
SMALL
No Charge or Current Charge


@<TRIPOS>ATOM
      1 C6           3.1080     0.9100    -0.0330 c2         1 SNE      -0.319000
      2 C1           1.9560     0.2300     0.0260 c2         1 SNE      -0.086400
      3 C7           0.7440     0.5080     0.8180 cx         1 SNE      -0.099500
      4 C9           0.0800    -0.6050     1.6080 cx         1 SNE      -0.108400
      5 C4           1.6480    -0.9930    -0.8240 c5         1 SNE      -0.051200
      6 C3           0.0820    -1.0680    -0.9260 c5         1 SNE      -0.045400
      7 C8          -0.4520    -0.1990     0.2500 cx         1 SNE      -0.104000
      8 C2          -1.8320     0.4650     0.1470 c3         1 SNE      -0.020700
      9 C           -1.9040     1.5100    -0.9910 c3         1 SNE      -0.083600
     10 C5          -2.9600    -0.5830     0.0260 c3         1 SNE      -0.083600
     11 H1           3.2750     1.7990     0.5760 ha         1 SNE       0.164000
     12 H2           3.9220     0.6030    -0.6900 ha         1 SNE       0.164000
     13 H4           0.6290     1.5250     1.1870 hc         1 SNE       0.090700
     14 H5           0.5970    -1.5560     1.7030 hc         1 SNE       0.072200
     15 H6          -0.4930    -0.3200     2.4870 hc         1 SNE       0.072200
     16 H7           2.1200    -0.9360    -1.8110 hc         1 SNE       0.050200
     17 H8          -0.2460    -0.6740    -1.8940 hc         1 SNE       0.047700
     18 H9          -0.2790    -2.1020    -0.8760 hc         1 SNE       0.047700
     19 H10         -2.0130     1.0150     1.0790 hc         1 SNE       0.043700
     20 H11         -1.0980     2.2470    -0.8910 hc         1 SNE       0.033200
     21 H12         -1.8180     1.0360    -1.9750 hc         1 SNE       0.033200
     22 H13         -2.8580     2.0480    -0.9570 hc         1 SNE       0.033200
     23 H14         -2.9240    -1.2880     0.8650 hc         1 SNE       0.033200
     24 H15         -3.9430    -0.0950     0.0360 hc         1 SNE       0.033200
     25 H16         -2.8700    -1.1530    -0.9060 hc         1 SNE       0.033200
     26 H3           2.0440    -1.8920    -0.3380 hc         1 SNE       0.050200
@<TRIPOS>BOND
     1     1     2 2   
     2     1    11 1   
     3     1    12 1   
     4     2     3 1   
     5     2     5 1   
     6     3     4 1   
     7     3     7 1   
     8     3    13 1   
     9     4     7 1   
    10     4    14 1   
    11     4    15 1   
    12     5     6 1   
    13     5    16 1   
    14     5    26 1   
    15     6     7 1   
    16     6    17 1   
    17     6    18 1   
    18     7     8 1   
    19     8     9 1   
    20     8    10 1   
    21     8    19 1   
    22     9    20 1   
    23     9    21 1   
    24     9    22 1   
    25    10    23 1   
    26    10    24 1   
    27    10    25 1   
@<TRIPOS>SUBSTRUCTURE
     1 SNE         1 TEMP              0 ****  ****    0 ROOT
