@<TRIPOS>MOLECULE
SNG
   33    33     1     0     0
SMALL
No Charge or Current Charge


@<TRIPOS>ATOM
      1 C1          37.3390    46.8490    13.8810 c6         1 SNG       0.343300
      2 C2          36.0030    46.2070    14.3890 c6         1 SNG       0.058700
      3 C3          36.1440    44.6580    14.3140 c6         1 SNG       0.117300
      4 C4          36.5460    44.2090    12.8810 c6         1 SNG       0.144300
      5 C5          37.8580    44.9400    12.4650 c6         1 SNG       0.130300
      6 C6          38.3240    44.6030    11.0080 c3         1 SNG       0.173600
      7 C7          34.8780    47.6700    16.1770 c          1 SNG       0.615100
      8 C8          33.8210    48.1840    15.2010 c3         1 SNG      -0.181100
      9 N2          35.6730    46.6160    15.7820 ns         1 SNG      -0.517900
     10 O3          34.9200    44.0120    14.7080 oh         1 SNG      -0.662000
     11 O4          36.6890    42.7790    12.8510 oh         1 SNG      -0.720000
     12 O5          37.6600    46.3720    12.5580 os         1 SNG      -0.427000
     13 O6          37.4240    45.0650     9.9760 oh         1 SNG      -0.706000
     14 O7          34.9680    48.1040    17.3130 o          1 SNG      -0.593100
     15 SE          37.3010    48.7010    13.8160 ss         1 SNG      -0.496000
     16 H1          38.1510    46.5810    14.5740 h2         1 SNG       0.062700
     17 H2          35.1970    46.5110    13.7090 h1         1 SNG       0.086700
     18 H3          36.9500    44.3610    15.0030 h1         1 SNG       0.045700
     19 H4          35.7450    44.5170    12.1920 h1         1 SNG       0.058700
     20 H5          38.6670    44.6530    13.1530 h1         1 SNG       0.052700
     21 H6C1        39.3130    45.0610    10.8690 h1         1 SNG       0.061200
     22 H6C2        38.4710    43.5160    10.9330 h1         1 SNG       0.061200
     23 H8C1        33.2860    47.3350    14.7610 hc         1 SNG       0.063700
     24 H8C2        33.1340    48.8970    15.6700 hc         1 SNG       0.063700
     25 H8C3        34.3180    48.6340    14.3370 hc         1 SNG       0.063700
     26 HMC1        36.9850    48.6260    11.3780 h1         1 SNG       0.061700
     27 HMC2        35.4310    48.4270    12.2360 h1         1 SNG       0.061700
     28 HMC3        36.1770    50.0450    12.0970 h1         1 SNG       0.061700
     29 HA          36.2830    46.2740    16.5170 hn         1 SNG       0.311500
     30 HB          34.6140    44.4680    15.5250 ho         1 SNG       0.462000
     31 HC          35.9660    42.4490    13.4400 ho         1 SNG       0.527000
     32 H6          36.6330    44.4800    10.0010 ho         1 SNG       0.501000
     33 CM          36.3820    48.9740    12.2260 c3         1 SNG       0.111900
@<TRIPOS>BOND
     1     1     2 1   
     2     1    12 1   
     3     1    15 1   
     4     1    16 1   
     5     2     3 1   
     6     2     9 1   
     7     2    17 1   
     8     3     4 1   
     9     3    10 1   
    10     3    18 1   
    11     4     5 1   
    12     4    11 1   
    13     4    19 1   
    14     5     6 1   
    15     5    12 1   
    16     5    20 1   
    17     6    13 1   
    18     6    21 1   
    19     6    22 1   
    20     7     8 1   
    21     7     9 1   
    22     7    14 2   
    23     8    23 1   
    24     8    24 1   
    25     8    25 1   
    26     9    29 1   
    27    10    30 1   
    28    11    31 1   
    29    13    32 1   
    30    15    33 1   
    31    26    33 1   
    32    27    33 1   
    33    28    33 1   
@<TRIPOS>SUBSTRUCTURE
     1 SNG         1 TEMP              0 ****  ****    0 ROOT
