@<TRIPOS>MOLECULE
SNG
   33    33     1     0     0
SMALL
abcg2


@<TRIPOS>ATOM
      1 C1          37.4630    46.8520    13.8450 c6         1 SNG       0.343300
      2 C2          36.1150    46.3330    14.3580 c6         1 SNG       0.058700
      3 C3          36.0910    44.8010    14.2880 c6         1 SNG       0.117300
      4 C4          36.4680    44.3340    12.8910 c6         1 SNG       0.144300
      5 C5          37.8280    44.9240    12.5250 c6         1 SNG       0.130300
      6 C6          38.3130    44.5340    11.1380 c3         1 SNG       0.173600
      7 C7          34.8770    47.5440    16.1810 c          1 SNG       0.615100
      8 C8          33.8150    47.9760    15.2020 c3         1 SNG      -0.181100
      9 N2          35.8760    46.7640    15.7100 ns         1 SNG      -0.517900
     10 O3          34.8140    44.2970    14.5880 oh         1 SNG      -0.662000
     11 O4          36.5700    42.9350    12.8130 oh         1 SNG      -0.720000
     12 O5          37.7550    46.3380    12.5800 os         1 SNG      -0.427000
     13 O6          37.4140    44.8590    10.1070 oh         1 SNG      -0.706000
     14 O7          34.8410    47.8720    17.3570 o          1 SNG      -0.593100
     15 SE          37.5320    48.8040    13.7170 ss         1 SNG      -0.496000
     16 H1          38.2460    46.5870    14.5760 h2         1 SNG       0.062700
     17 H2          35.3160    46.7060    13.7140 h1         1 SNG       0.086700
     18 H3          36.8430    44.4090    14.9910 h1         1 SNG       0.045700
     19 H4          35.7150    44.7200    12.1850 h1         1 SNG       0.058700
     20 H5          38.5770    44.5580    13.2450 h1         1 SNG       0.052700
     21 H6C1        39.2420    45.0730    10.9390 h1         1 SNG       0.061200
     22 H6C2        38.5650    43.4690    11.1470 h1         1 SNG       0.061200
     23 H8C1        33.3740    47.1280    14.6790 hc         1 SNG       0.063700
     24 H8C2        33.0290    48.5040    15.7350 hc         1 SNG       0.063700
     25 H8C3        34.2270    48.6500    14.4500 hc         1 SNG       0.063700
     26 HMC1        36.7290    48.5000    11.3150 h1         1 SNG       0.061700
     27 HMC2        35.3340    48.6210    12.4100 h1         1 SNG       0.061700
     28 HMC3        36.2500    50.0700    11.9840 h1         1 SNG       0.061700
     29 HA          36.5730    46.5010    16.3960 hn         1 SNG       0.311500
     30 HB          34.6640    44.3780    15.5360 ho         1 SNG       0.462000
     31 HC          35.7280    42.5550    13.0830 ho         1 SNG       0.527000
     32 H6          36.7350    44.1790    10.0650 ho         1 SNG       0.501000
     33 CM          36.3300    49.0040    12.1910 c3         1 SNG       0.111900
@<TRIPOS>BOND
     1     1     2 1   
     2     1    12 1   
     3     1    15 1   
     4     1    16 1   
     5     2     3 1   
     6     2     9 1   
     7     2    17 1   
     8     3     4 1   
     9     3    10 1   
    10     3    18 1   
    11     4     5 1   
    12     4    11 1   
    13     4    19 1   
    14     5     6 1   
    15     5    12 1   
    16     5    20 1   
    17     6    13 1   
    18     6    21 1   
    19     6    22 1   
    20     7     8 1   
    21     7     9 1   
    22     7    14 2   
    23     8    23 1   
    24     8    24 1   
    25     8    25 1   
    26     9    29 1   
    27    10    30 1   
    28    11    31 1   
    29    13    32 1   
    30    15    33 1   
    31    26    33 1   
    32    27    33 1   
    33    28    33 1   
@<TRIPOS>SUBSTRUCTURE
     1 SNG         1 TEMP              0 ****  ****    0 ROOT
