@<TRIPOS>MOLECULE
SNH
   44    46     1     0     0
SMALL
abcg2


@<TRIPOS>ATOM
      1 C1           8.9280    32.6640    72.5480 cc         1 SNH      -0.214000
      2 C2           8.7580    33.2780    73.7680 cd         1 SNH      -0.127000
      3 C3           7.4120    33.6510    74.0030 cd         1 SNH       0.220000
      4 C4           6.5590    33.3090    72.9710 cc         1 SNH      -0.245600
      5 S5           7.4210    32.5200    71.6990 ss         1 SNH       0.275000
      6 C6           5.0920    33.5750    72.8640 c          1 SNH       0.731600
      7 O7           4.5130    33.2030    71.8190 o          1 SNH      -0.701500
      8 O8           4.5620    34.1690    73.8520 o          1 SNH      -0.701500
      9 N9           6.9290    34.3130    75.1440 nu         1 SNH      -0.863100
     10 S11          7.8060    35.5110    75.8700 sy         1 SNH       1.171600
     11 O12          6.8650    36.2130    76.7110 o          1 SNH      -0.566000
     12 O13          8.9550    34.9000    76.4950 o          1 SNH      -0.566000
     13 C14          8.3940    36.5430    74.5520 ca         1 SNH      -0.304500
     14 C15          9.7580    36.4960    74.2690 ca         1 SNH      -0.014000
     15 C16         10.2730    37.1960    73.1910 ca         1 SNH      -0.144000
     16 C17          9.4320    37.9520    72.3750 ca         1 SNH      -0.031300
     17 C18          8.0710    37.9870    72.6800 ca         1 SNH      -0.142000
     18 C19          7.5140    37.2990    73.7550 ca         1 SNH       0.044700
     19 C20          6.0330    37.3910    73.9950 c3         1 SNH      -0.091800
     20 C21          9.9730    38.7250    71.2060 c3         1 SNH      -0.049800
     21 C22         10.1650    32.2090    71.9630 cc         1 SNH      -0.055000
     22 C23         10.3420    31.3400    70.9020 cd         1 SNH      -0.184000
     23 C24         11.6950    31.1350    70.5790 cd         1 SNH      -0.066000
     24 C25         12.5600    31.8450    71.3850 cc         1 SNH      -0.353600
     25 S26         11.6880    32.7850    72.5560 ss         1 SNH       0.283000
     26 C27         14.0160    31.9030    71.3570 c          1 SNH       0.610700
     27 C28         14.7310    31.0700    70.3230 c3         1 SNH      -0.186100
     28 O29         14.6320    32.6080    72.1500 o          1 SNH      -0.552100
     29 H2           9.5610    33.4480    74.4690 ha         1 SNH       0.143000
     30 HN9          5.9230    34.5170    75.0170 hn         1 SNH       0.564000
     31 H15         10.4080    35.8970    74.8890 ha         1 SNH       0.136000
     32 H16         11.3330    37.1440    72.9750 ha         1 SNH       0.109000
     33 H18          7.4090    38.5700    72.0500 ha         1 SNH       0.106000
     34 H201         5.5510    36.4150    73.9150 hc         1 SNH       0.071033
     35 H202         5.5800    38.0510    73.2570 hc         1 SNH       0.071033
     36 H203         5.8170    37.7780    74.9900 hc         1 SNH       0.071033
     37 H211         9.2500    38.7630    70.3910 hc         1 SNH       0.040367
     38 H212        10.8990    38.2840    70.8360 hc         1 SNH       0.040367
     39 H213        10.1910    39.7570    71.4980 hc         1 SNH       0.040367
     40 H23          9.5190    30.8620    70.3900 ha         1 SNH       0.140000
     41 H24         12.0280    30.4850    69.7830 ha         1 SNH       0.121000
     42 H281        14.5120    30.0110    70.4750 hc         1 SNH       0.056033
     43 H282        15.8030    31.2360    70.4040 hc         1 SNH       0.056033
     44 H283        14.3930    31.3320    69.3180 hc         1 SNH       0.056033
@<TRIPOS>BOND
     1     1     2 2   
     2     1     5 1   
     3     1    21 1   
     4     2     3 1   
     5     2    29 1   
     6     3     4 2   
     7     3     9 1   
     8     4     5 1   
     9     4     6 1   
    10     6     7 1   
    11     6     8 1   
    12     9    10 1   
    13     9    30 1   
    14    10    11 2   
    15    10    12 2   
    16    10    13 1   
    17    13    14 ar  
    18    13    18 ar  
    19    14    15 ar  
    20    14    31 1   
    21    15    16 ar  
    22    15    32 1   
    23    16    17 ar  
    24    16    20 1   
    25    17    18 ar  
    26    17    33 1   
    27    18    19 1   
    28    19    34 1   
    29    19    35 1   
    30    19    36 1   
    31    20    37 1   
    32    20    38 1   
    33    20    39 1   
    34    21    22 2   
    35    21    25 1   
    36    22    23 1   
    37    22    40 1   
    38    23    24 2   
    39    23    41 1   
    40    24    25 1   
    41    24    26 1   
    42    26    27 1   
    43    26    28 2   
    44    27    42 1   
    45    27    43 1   
    46    27    44 1   
@<TRIPOS>SUBSTRUCTURE
     1 SNH         1 TEMP              0 ****  ****    0 ROOT
