@<TRIPOS>MOLECULE
SNH
   44    46     1     0     0
SMALL
No Charge or Current Charge


@<TRIPOS>ATOM
      1 C1           8.7130    32.8160    72.7340 cc         1 SNH      -0.214000
      2 C2           8.5920    33.4310    73.9560 cd         1 SNH      -0.127000
      3 C3           7.2410    33.6460    74.3380 cd         1 SNH       0.220000
      4 C4           6.3300    33.1520    73.4390 cc         1 SNH      -0.245600
      5 S5           7.1330    32.4220    72.0550 ss         1 SNH       0.275000
      6 C6           4.8620    33.2160    73.5590 c          1 SNH       0.731600
      7 O7           4.1840    32.7290    72.6690 o          1 SNH      -0.701500
      8 O8           4.3720    33.7620    74.5400 o          1 SNH      -0.701500
      9 N9           6.8960    34.2710    75.4980 nu         1 SNH      -0.863100
     10 S11          7.4410    35.7840    75.9610 sy         1 SNH       1.171600
     11 O12          6.1820    36.5050    76.1470 o          1 SNH      -0.566000
     12 O13          8.3380    35.4990    77.0840 o          1 SNH      -0.566000
     13 C14          8.3750    36.4660    74.5630 ca         1 SNH      -0.304500
     14 C15          9.7850    36.4880    74.6640 ca         1 SNH      -0.014000
     15 C16         10.5730    36.9540    73.6020 ca         1 SNH      -0.144000
     16 C17          9.9700    37.4110    72.4210 ca         1 SNH      -0.031300
     17 C18          8.5690    37.4070    72.3190 ca         1 SNH      -0.142000
     18 C19          7.7580    36.9390    73.3730 ca         1 SNH       0.044700
     19 C20          6.2450    36.9700    73.1710 c3         1 SNH      -0.091800
     20 C21         10.8250    37.9120    71.2670 c3         1 SNH      -0.049800
     21 C22          9.9810    32.5620    72.1040 cc         1 SNH      -0.055000
     22 C23         10.1020    31.9530    70.8790 cd         1 SNH      -0.184000
     23 C24         11.4510    31.8260    70.4470 cd         1 SNH      -0.066000
     24 C25         12.3570    32.3440    71.3470 cc         1 SNH      -0.353600
     25 S26         11.5550    33.0060    72.7680 ss         1 SNH       0.283000
     26 C27         13.8250    32.3690    71.1920 c          1 SNH       0.610700
     27 C28         14.4300    31.7710    69.9220 c3         1 SNH      -0.186100
     28 O29         14.5510    32.8540    72.0500 o          1 SNH      -0.552100
     29 H2           9.4330    33.7430    74.5630 ha         1 SNH       0.143000
     30 HN9          5.8860    34.3980    75.5460 hn         1 SNH       0.564000
     31 H15         10.2830    36.1310    75.5630 ha         1 SNH       0.136000
     32 H16         11.6560    36.9550    73.6980 ha         1 SNH       0.109000
     33 H18          8.1060    37.7710    71.4050 ha         1 SNH       0.106000
     34 H201         5.7810    36.0070    73.4030 hc         1 SNH       0.071033
     35 H202         5.9790    37.2030    72.1340 hc         1 SNH       0.071033
     36 H203         5.7790    37.7360    73.8010 hc         1 SNH       0.071033
     37 H211        10.3380    37.7300    70.3010 hc         1 SNH       0.040367
     38 H212        11.7980    37.4080    71.2430 hc         1 SNH       0.040367
     39 H213        11.0050    38.9890    71.3550 hc         1 SNH       0.040367
     40 H23          9.2610    31.6020    70.2900 ha         1 SNH       0.140000
     41 H24         11.7210    31.3670    69.5000 ha         1 SNH       0.121000
     42 H281        14.0880    30.7360    69.8180 hc         1 SNH       0.056033
     43 H282        15.5230    31.8380    69.9010 hc         1 SNH       0.056033
     44 H283        13.9800    32.2590    69.0490 hc         1 SNH       0.056033
@<TRIPOS>BOND
     1     1     2 2   
     2     1     5 1   
     3     1    21 1   
     4     2     3 1   
     5     2    29 1   
     6     3     4 2   
     7     3     9 1   
     8     4     5 1   
     9     4     6 1   
    10     6     7 1   
    11     6     8 1   
    12     9    10 1   
    13     9    30 1   
    14    10    11 2   
    15    10    12 2   
    16    10    13 1   
    17    13    14 ar  
    18    13    18 ar  
    19    14    15 ar  
    20    14    31 1   
    21    15    16 ar  
    22    15    32 1   
    23    16    17 ar  
    24    16    20 1   
    25    17    18 ar  
    26    17    33 1   
    27    18    19 1   
    28    19    34 1   
    29    19    35 1   
    30    19    36 1   
    31    20    37 1   
    32    20    38 1   
    33    20    39 1   
    34    21    22 2   
    35    21    25 1   
    36    22    23 1   
    37    22    40 1   
    38    23    24 2   
    39    23    41 1   
    40    24    25 1   
    41    24    26 1   
    42    26    27 1   
    43    26    28 2   
    44    27    42 1   
    45    27    43 1   
    46    27    44 1   
@<TRIPOS>SUBSTRUCTURE
     1 SNH         1 TEMP              0 ****  ****    0 ROOT
