@<TRIPOS>MOLECULE
SNI
   31    33     1     0     0
SMALL
No Charge or Current Charge


@<TRIPOS>ATOM
      1 O5           2.6020     1.1500     4.2370 oh         1 SNI      -0.700000
      2 C5           1.7260     0.0100     4.2270 c3         1 SNI       0.142600
      3 C4           0.2310     0.4490     4.1500 c5         1 SNI       0.126300
      4 O4          -0.0680     0.9630     2.8230 os         1 SNI      -0.420000
      5 C1          -0.7330    -0.0660     2.0450 c5         1 SNI       0.312300
      6 N9          -0.1200    -0.1540     0.7190 na         1 SNI      -0.177500
      7 C9          -0.6090     0.3830    -0.4440 cc         1 SNI       0.089400
      8 N3          -1.7330     1.1500    -0.6200 nc         1 SNI      -0.573100
      9 C2          -1.9360     1.5250    -1.8870 cd         1 SNI       0.473800
     10 N1          -1.1370     1.2110    -2.9780 ns         1 SNI      -0.320400
     11 C6          -0.0090     0.4380    -2.8130 cs         1 SNI       0.343900
     12 SE           0.9640     0.0440    -4.1270 s          1 SNI      -0.615400
     13 C7           0.2420     0.0120    -1.4480 cd         1 SNI       0.194500
     14 N7           1.2650    -0.7710    -0.9290 nd         1 SNI      -0.593000
     15 C8           1.0150    -0.8610     0.3740 cc         1 SNI       0.430400
     16 C10         -0.7330    -1.3600     2.9330 c5         1 SNI       0.137300
     17 O2          -1.8630    -2.2160     2.7260 oh         1 SNI      -0.669000
     18 C3          -0.7880    -0.7230     4.3490 c5         1 SNI       0.102300
     19 O3          -2.1220    -0.2710     4.6530 oh         1 SNI      -0.684000
     20 H5           3.5260     0.8090     4.2870 ho         1 SNI       0.511000
     21 H5'1         1.8690    -0.5740     5.1460 h1         1 SNI       0.023200
     22 H5'2         1.9660    -0.6460     3.3800 h1         1 SNI       0.023200
     23 H4           0.0720     1.2440     4.8910 h1         1 SNI       0.094700
     24 H1          -1.7720     0.2450     1.8770 h2         1 SNI       0.127700
     25 H2          -2.7880     2.1350    -2.1660 h5         1 SNI       0.062800
     26 HN1         -1.3690     1.5410    -3.9060 hn         1 SNI       0.354500
     27 H8           1.6100    -1.4020     1.1000 h5         1 SNI       0.078100
     28 H7           0.1970    -1.9310     2.8030 h1         1 SNI       0.048700
     29 H6          -2.5470    -1.8610     3.3470 ho         1 SNI       0.515000
     30 H3          -0.4400    -1.4280     5.1170 h1         1 SNI       0.054700
     31 H9          -2.1080     0.1210     5.5590 ho         1 SNI       0.509000
@<TRIPOS>BOND
     1     1     2 1   
     2     1    20 1   
     3     2     3 1   
     4     2    21 1   
     5     2    22 1   
     6     3     4 1   
     7     3    18 1   
     8     3    23 1   
     9     4     5 1   
    10     5     6 1   
    11     5    16 1   
    12     5    24 1   
    13     6     7 1   
    14     6    15 1   
    15     7     8 1   
    16     7    13 2   
    17     8     9 2   
    18     9    10 1   
    19     9    25 1   
    20    10    11 1   
    21    10    26 1   
    22    11    12 2   
    23    11    13 1   
    24    13    14 1   
    25    14    15 2   
    26    15    27 1   
    27    16    17 1   
    28    16    18 1   
    29    16    28 1   
    30    17    29 1   
    31    18    19 1   
    32    18    30 1   
    33    19    31 1   
@<TRIPOS>SUBSTRUCTURE
     1 SNI         1 TEMP              0 ****  ****    0 ROOT
