@<TRIPOS>MOLECULE
SNI
   31    33     1     0     0
SMALL
bcc


@<TRIPOS>ATOM
      1 O5           2.7270     0.3880     4.0380 oh         1 SNI      -0.577800
      2 C5           1.6360    -0.4660     4.2730 c3         1 SNI       0.119400
      3 C4           0.3590     0.3530     4.2340 c5         1 SNI       0.103100
      4 O4           0.2600     1.1200     3.0280 os         1 SNI      -0.373600
      5 C1          -0.6400     0.5350     2.1440 c5         1 SNI       0.259800
      6 N9           0.0060     0.4020     0.8470 na         1 SNI      -0.198900
      7 C9          -0.5980     0.4320    -0.3630 cc         1 SNI       0.074800
      8 N3          -1.8950     0.6400    -0.6210 nc         1 SNI      -0.573100
      9 C2          -2.1650     0.6230    -1.8890 cd         1 SNI       0.473800
     10 N1          -1.2500     0.4130    -2.8600 ns         1 SNI      -0.387400
     11 C6           0.0890     0.1980    -2.6620 cs         1 SNI       0.410900
     12 SE           1.2240    -0.0670    -4.0550 s          1 SNI      -0.615400
     13 C7           0.4160     0.2170    -1.2960 cd         1 SNI       0.259800
     14 N7           1.6130     0.0640    -0.6620 nd         1 SNI      -0.593000
     15 C8           1.3350     0.1780     0.6040 cc         1 SNI       0.430400
     16 C10         -1.0380    -0.8150     2.7530 c5         1 SNI       0.114100
     17 O2          -2.3010    -1.1810     2.3060 oh         1 SNI      -0.546800
     18 C3          -0.8910    -0.5240     4.2480 c5         1 SNI       0.079100
     19 O3          -2.0340     0.1730     4.6640 oh         1 SNI      -0.561800
     20 H5           3.5300    -0.1400     4.0620 ho         1 SNI       0.412000
     21 H5'1         1.6890    -0.9440     5.2600 h1         1 SNI       0.023200
     22 H5'2         1.5980    -1.2790     3.5350 h1         1 SNI       0.023200
     23 H4           0.3660     1.0620     5.0680 h1         1 SNI       0.094700
     24 H1          -1.5220     1.1650     1.9890 h2         1 SNI       0.127700
     25 H2          -3.1780     0.7830    -2.2330 h5         1 SNI       0.062800
     26 HN1         -1.5850     0.4220    -3.8160 hn         1 SNI       0.354500
     27 H8           2.0610     0.1380     1.4020 h5         1 SNI       0.078100
     28 H7          -0.2810    -1.5630     2.4810 h1         1 SNI       0.048700
     29 H6          -2.4460    -2.1090     2.5150 ho         1 SNI       0.416000
     30 H3          -0.7360    -1.4400     4.8320 h1         1 SNI       0.054700
     31 H9          -1.9370     0.3890     5.5980 ho         1 SNI       0.410000
@<TRIPOS>BOND
     1     1     2 1   
     2     1    20 1   
     3     2     3 1   
     4     2    21 1   
     5     2    22 1   
     6     3     4 1   
     7     3    18 1   
     8     3    23 1   
     9     4     5 1   
    10     5     6 1   
    11     5    16 1   
    12     5    24 1   
    13     6     7 1   
    14     6    15 1   
    15     7     8 1   
    16     7    13 2   
    17     8     9 2   
    18     9    10 1   
    19     9    25 1   
    20    10    11 1   
    21    10    26 1   
    22    11    12 2   
    23    11    13 1   
    24    13    14 1   
    25    14    15 2   
    26    15    27 1   
    27    16    17 1   
    28    16    18 1   
    29    16    28 1   
    30    17    29 1   
    31    18    19 1   
    32    18    30 1   
    33    19    31 1   
@<TRIPOS>SUBSTRUCTURE
     1 SNI         1 TEMP              0 ****  ****    0 ROOT
