@<TRIPOS>MOLECULE
SNJ
   30    32     1     0     0
SMALL
No Charge or Current Charge


@<TRIPOS>ATOM
      1 N1          49.4410   115.4490    33.4580 n          1 SNJ      -0.004400
      2 C4          51.4840   115.1690    32.0690 ca         1 SNJ      -0.118000
      3 C5          52.7560   115.6130    31.6670 ca         1 SNJ      -0.097500
      4 C6          53.3050   116.7780    32.2250 ca         1 SNJ      -0.122000
      5 C7          52.5800   117.5030    33.1840 ca         1 SNJ      -0.097500
      6 C8          51.3080   117.0610    33.5870 ca         1 SNJ      -0.118000
      7 C10         45.0650   115.6560    35.2120 ca         1 SNJ      -0.082000
      8 C13         45.1300   118.4180    35.7180 ca         1 SNJ      -0.114500
      9 N           48.4530   116.3260    33.8240 n2         1 SNJ      -0.418300
     10 C           49.0170   114.1070    33.5740 c          1 SNJ       0.554000
     11 O           49.6930   113.0930    33.4520 o          1 SNJ      -0.498000
     12 C1          47.5620   114.2400    34.0000 c5         1 SNJ      -0.250700
     13 C11         43.9700   116.2870    35.8290 ca         1 SNJ      -0.114500
     14 C12         44.0020   117.6670    36.0830 ca         1 SNJ      -0.093000
     15 C14         46.2270   117.7910    35.1010 ca         1 SNJ      -0.082000
     16 C2          47.3690   115.7270    34.1860 ce         1 SNJ       0.379900
     17 C3          50.7490   115.8850    33.0400 ca         1 SNJ      -0.016000
     18 C9          46.2060   116.4020    34.8420 ca         1 SNJ      -0.120900
     19 H2          53.3140   115.0540    30.9180 ha         1 SNJ       0.114000
     20 H3          54.2900   117.1210    31.9130 ha         1 SNJ       0.115000
     21 H4          53.0030   118.4080    33.6160 ha         1 SNJ       0.114000
     22 H5          50.7590   117.6320    34.3330 ha         1 SNJ       0.132000
     23 H6          45.0180   114.5860    35.0220 ha         1 SNJ       0.122000
     24 H7          45.1570   119.4880    35.9140 ha         1 SNJ       0.117500
     25 H8          46.9330   113.8510    33.1950 hc         1 SNJ       0.106700
     26 H9          47.3750   113.6390    34.8940 hc         1 SNJ       0.106700
     27 H10         43.0960   115.7030    36.1100 ha         1 SNJ       0.117500
     28 H11         43.1540   118.1540    36.5610 ha         1 SNJ       0.116000
     29 H12         47.0920   118.3910    34.8260 ha         1 SNJ       0.122000
     30 H1          51.0710   114.2730    31.6120 ha         1 SNJ       0.132000
@<TRIPOS>BOND
     1     1     9 1   
     2     1    10 1   
     3     1    17 1   
     4     2     3 ar  
     5     2    17 ar  
     6     2    30 1   
     7     3     4 ar  
     8     3    19 1   
     9     4     5 ar  
    10     4    20 1   
    11     5     6 ar  
    12     5    21 1   
    13     6    17 ar  
    14     6    22 1   
    15     7    13 ar  
    16     7    18 ar  
    17     7    23 1   
    18     8    14 ar  
    19     8    15 ar  
    20     8    24 1   
    21     9    16 2   
    22    10    11 2   
    23    10    12 1   
    24    12    16 1   
    25    12    25 1   
    26    12    26 1   
    27    13    14 ar  
    28    13    27 1   
    29    14    28 1   
    30    15    18 ar  
    31    15    29 1   
    32    16    18 1   
@<TRIPOS>SUBSTRUCTURE
     1 SNJ         1 TEMP              0 ****  ****    0 ROOT
