@<TRIPOS>MOLECULE
SNJ
   30    32     1     0     0
SMALL
bcc


@<TRIPOS>ATOM
      1 N1          49.4100   115.4170    33.4180 n          1 SNJ      -0.164000
      2 C4          51.4180   115.2000    32.0580 ca         1 SNJ      -0.136000
      3 C5          52.6750   115.6700    31.7040 ca         1 SNJ      -0.115500
      4 C6          53.2040   116.8060    32.3000 ca         1 SNJ      -0.140000
      5 C7          52.4590   117.4780    33.2600 ca         1 SNJ      -0.115500
      6 C8          51.2070   117.0160    33.6320 ca         1 SNJ      -0.136000
      7 C10         45.1830   115.6540    35.2580 ca         1 SNJ      -0.100000
      8 C13         45.2150   118.4080    35.5950 ca         1 SNJ      -0.132500
      9 N           48.5120   116.3210    33.9250 n2         1 SNJ      -0.418300
     10 C           48.9570   114.1200    33.4820 c          1 SNJ       0.696500
     11 O           49.5610   113.1270    33.1480 o          1 SNJ      -0.573500
     12 C1          47.5710   114.2280    34.0660 c5         1 SNJ      -0.250700
     13 C11         44.0840   116.2980    35.8080 ca         1 SNJ      -0.132500
     14 C12         44.0960   117.6740    35.9780 ca         1 SNJ      -0.111000
     15 C14         46.3130   117.7690    35.0470 ca         1 SNJ      -0.100000
     16 C2          47.4600   115.6950    34.2990 ce         1 SNJ       0.379900
     17 C3          50.6830   115.8720    33.0320 ca         1 SNJ       0.076600
     18 C9          46.3080   116.3820    34.8730 ca         1 SNJ      -0.120900
     19 H2          53.2400   115.1420    30.9470 ha         1 SNJ       0.132000
     20 H3          54.1840   117.1660    32.0150 ha         1 SNJ       0.133000
     21 H4          52.8550   118.3680    33.7310 ha         1 SNJ       0.132000
     22 H5          50.6360   117.5450    34.3810 ha         1 SNJ       0.150000
     23 H6          45.1580   114.5790    35.1290 ha         1 SNJ       0.140000
     24 H7          45.2290   119.4820    35.7250 ha         1 SNJ       0.135500
     25 H8          46.8260   113.8530    33.3580 hc         1 SNJ       0.106700
     26 H9          47.4790   113.6310    34.9750 hc         1 SNJ       0.106700
     27 H10         43.2180   115.7210    36.1050 ha         1 SNJ       0.135500
     28 H11         43.2390   118.1760    36.4070 ha         1 SNJ       0.134000
     29 H12         47.1790   118.3460    34.7510 ha         1 SNJ       0.140000
     30 H1          51.0200   114.3290    31.5610 ha         1 SNJ       0.150000
@<TRIPOS>BOND
     1     1     9 1   
     2     1    10 1   
     3     1    17 1   
     4     2     3 ar  
     5     2    17 ar  
     6     2    30 1   
     7     3     4 ar  
     8     3    19 1   
     9     4     5 ar  
    10     4    20 1   
    11     5     6 ar  
    12     5    21 1   
    13     6    17 ar  
    14     6    22 1   
    15     7    13 ar  
    16     7    18 ar  
    17     7    23 1   
    18     8    14 ar  
    19     8    15 ar  
    20     8    24 1   
    21     9    16 2   
    22    10    11 2   
    23    10    12 1   
    24    12    16 1   
    25    12    25 1   
    26    12    26 1   
    27    13    14 ar  
    28    13    27 1   
    29    14    28 1   
    30    15    18 ar  
    31    15    29 1   
    32    16    18 1   
@<TRIPOS>SUBSTRUCTURE
     1 SNJ         1 TEMP              0 ****  ****    0 ROOT
