@<TRIPOS>MOLECULE
SNK
   25    25     1     0     0
SMALL
bcc


@<TRIPOS>ATOM
      1 N          226.9260   203.1080   223.4770 n8         1 SNK      -0.894800
      2 CA         227.6910   203.5880   222.3560 c3         1 SNK       0.109500
      3 C          227.4570   202.9300   220.9460 c          1 SNK       0.898600
      4 O          227.1770   203.8280   219.8490 o          1 SNK      -0.817300
      5 CB         227.7290   205.2300   222.4830 c3         1 SNK      -0.140100
      6 CG         228.4770   205.8280   223.4930 cc         1 SNK      -0.082900
      7 ND1        229.7150   205.2540   223.9910 na         1 SNK      -0.321900
      8 CD2        228.2480   206.7030   224.5910 cd         1 SNK       0.484600
      9 CE1        230.2290   205.8110   225.0840 cc         1 SNK       0.402400
     10 NE2        229.3420   206.8100   225.4170 nd         1 SNK      -0.750000
     11 C01        227.0900   209.8840   226.8350 c3         1 SNK      -0.247100
     12 C02        227.2410   209.6670   225.4210 c          1 SNK       0.756700
     13 O03        227.5960   210.4330   224.7510 o          1 SNK      -0.406100
     14 S04        226.9040   207.9100   224.6810 ss         1 SNK      -0.595900
     15 H1         226.9750   203.5630   224.3970 hn         1 SNK       0.325800
     16 H2         225.7990   203.3240   223.2420 hn         1 SNK       0.325800
     17 H4         228.6520   203.3050   222.5020 h1         1 SNK       0.007700
     18 H6         228.2180   205.5430   221.4540 hc         1 SNK       0.098200
     19 H7         226.6530   205.6510   222.3340 hc         1 SNK       0.098200
     20 H8         230.1670   204.4630   223.4100 hn         1 SNK       0.301700
     21 H9         231.0930   205.7250   225.4860 h5         1 SNK       0.042100
     22 H11        227.4210   210.9540   227.1190 hc         1 SNK       0.073367
     23 H12        226.1480   209.6910   227.2780 hc         1 SNK       0.073367
     24 H13        227.8930   209.2380   227.4150 hc         1 SNK       0.073367
     25 O1         227.3440   201.7650   220.8190 o          1 SNK      -0.817300
@<TRIPOS>BOND
     1     1     2 1   
     2     1    15 1   
     3     1    16 1   
     4     2     3 1   
     5     2     5 1   
     6     2    17 1   
     7     3     4 1   
     8     3    25 1   
     9     5     6 1   
    10     5    18 1   
    11     5    19 1   
    12     6     7 1   
    13     6     8 2   
    14     7     9 1   
    15     7    20 1   
    16     8    10 1   
    17     8    14 1   
    18     9    10 2   
    19     9    21 1   
    20    11    12 1   
    21    11    22 1   
    22    11    23 1   
    23    11    24 1   
    24    12    13 2   
    25    12    14 1   
@<TRIPOS>SUBSTRUCTURE
     1 SNK         1 TEMP              0 ****  ****    0 ROOT
