@<TRIPOS>MOLECULE
SNK
   25    25     1     0     0
SMALL
No Charge or Current Charge


@<TRIPOS>ATOM
      1 N          227.0830   203.4140   223.7010 n8         1 SNK      -0.894800
      2 CA         227.5140   204.2440   222.5190 c3         1 SNK       0.109500
      3 C          226.5320   204.2720   221.2570 c          1 SNK       0.898600
      4 O          225.4300   204.8040   221.3710 o          1 SNK      -0.817300
      5 CB         227.8600   205.6760   223.0050 c3         1 SNK      -0.140100
      6 CG         228.9330   205.7300   224.0730 cc         1 SNK      -0.082900
      7 ND1        230.2180   205.2560   223.9170 na         1 SNK      -0.321900
      8 CD2        228.9320   206.2080   225.3640 cd         1 SNK       0.484600
      9 CE1        230.8940   205.4320   225.1080 cc         1 SNK       0.402400
     10 NE2        230.1170   206.0020   226.0180 nd         1 SNK      -0.750000
     11 C01        226.3260   209.3310   225.4630 c3         1 SNK      -0.247100
     12 C02        227.4980   208.4200   225.1340 c          1 SNK       0.756700
     13 O03        228.3520   208.7180   224.3140 o          1 SNK      -0.406100
     14 S04        227.5060   206.8930   226.1190 ss         1 SNK      -0.595900
     15 H1         227.7400   203.5770   224.4690 hn         1 SNK       0.325800
     16 H2         226.1890   203.7760   224.0460 hn         1 SNK       0.325800
     17 H4         228.4520   203.7940   222.1680 h1         1 SNK       0.007700
     18 H6         228.1910   206.2650   222.1410 hc         1 SNK       0.098200
     19 H7         226.9400   206.1570   223.3570 hc         1 SNK       0.098200
     20 H8         230.6090   204.8330   223.0860 hn         1 SNK       0.301700
     21 H9         231.9230   205.1210   225.2420 h5         1 SNK       0.042100
     22 H11        226.3390   210.2600   224.8820 hc         1 SNK       0.073367
     23 H12        225.3950   208.7720   225.3200 hc         1 SNK       0.073367
     24 H13        226.3210   209.5230   226.5410 hc         1 SNK       0.073367
     25 O1         226.8910   203.7280   220.2150 o          1 SNK      -0.817300
@<TRIPOS>BOND
     1     1     2 1   
     2     1    15 1   
     3     1    16 1   
     4     2     3 1   
     5     2     5 1   
     6     2    17 1   
     7     3     4 1   
     8     3    25 1   
     9     5     6 1   
    10     5    18 1   
    11     5    19 1   
    12     6     7 1   
    13     6     8 2   
    14     7     9 1   
    15     7    20 1   
    16     8    10 1   
    17     8    14 1   
    18     9    10 2   
    19     9    21 1   
    20    11    12 1   
    21    11    22 1   
    22    11    23 1   
    23    11    24 1   
    24    12    13 2   
    25    12    14 1   
@<TRIPOS>SUBSTRUCTURE
     1 SNK         1 TEMP              0 ****  ****    0 ROOT
