@<TRIPOS>MOLECULE
SNL
   61    65     1     0     0
SMALL
bcc


@<TRIPOS>ATOM
      1 C8          -3.3430     1.5020     0.7380 c5         1 SNL      -0.094400
      2 C4          -1.7940    -1.7430    -0.6160 c6         1 SNL      -0.063400
      3 C5          -2.2610    -0.6260     0.3130 c5         1 SNL      -0.030000
      4 C2           2.0320    -1.7680     0.3310 c6         1 SNL      -0.008800
      5 C6          -1.1850     0.4660     0.3410 c5         1 SNL      -0.070700
      6 C1           2.5490    -2.6310    -0.8290 c6         1 SNL      -0.064400
      7 C3          -0.4350    -2.2870    -0.1690 c6         1 SNL      -0.072400
      8 C7          -1.8430     1.6300     1.0840 c5         1 SNL      -0.069400
      9 C9          -3.4620     0.2310    -0.1350 c5         1 SNL       0.159800
     10 C10         -2.5510    -1.1980     1.7090 c3         1 SNL      -0.078100
     11 C11          1.9450    -2.6120     1.6180 c3         1 SNL      -0.083100
     12 C12          4.0190    -2.9970    -0.7020 c6         1 SNL      -0.181400
     13 C13         -3.5450     0.5840    -1.6270 c5         1 SNL      -0.103400
     14 C14         -5.0390     0.7760    -1.8300 c5         1 SNL      -0.200400
     15 C15         -5.6360    -0.1370    -0.7930 c          1 SNL       0.731600
     16 C16          2.0500     3.4760    -0.2040 c          1 SNL       0.614700
     17 C17          2.4140     4.3350    -1.3820 c3         1 SNL      -0.186100
     18 C18          4.8750    -1.7690    -0.5690 c          1 SNL       0.574300
     19 C19          4.2690    -0.6390     0.1350 ce         1 SNL      -0.254200
     20 C20          3.0050    -0.6350     0.5880 c2         1 SNL      -0.033400
     21 C21          2.5260     0.4990     1.4380 c6         1 SNL      -0.045200
     22 C22          1.2100     1.0700     0.9320 c6         1 SNL       0.051400
     23 C23          0.1640    -0.0360     0.8310 c6         1 SNL      -0.031700
     24 C24          0.6380    -1.1940    -0.0660 c6         1 SNL      -0.049700
     25 O57         -6.7580    -0.5590    -0.7170 o          1 SNL      -0.568500
     26 O58         -4.7100    -0.4500     0.1120 os         1 SNL      -0.400900
     27 O59          2.1780     3.8200     0.9440 o          1 SNL      -0.516100
     28 O60          6.0240    -1.7240    -0.9730 o          1 SNL      -0.526100
     29 S61          1.4490     1.8860    -0.6870 ss         1 SNL      -0.346700
     30 H81         -3.9500     1.4020     1.6390 hc         1 SNL       0.057700
     31 H82         -3.7190     2.3800     0.2110 hc         1 SNL       0.057700
     32 H41         -1.6870    -1.3680    -1.6380 hc         1 SNL       0.048200
     33 H42         -2.5240    -2.5560    -0.6550 hc         1 SNL       0.048200
     34 H6          -1.0440     0.7820    -0.7020 hc         1 SNL       0.061700
     35 H11          2.4050    -2.0860    -1.7670 hc         1 SNL       0.050200
     36 H12          1.9560    -3.5430    -0.9060 hc         1 SNL       0.050200
     37 H31         -0.1190    -3.0490    -0.8830 hc         1 SNL       0.045700
     38 H32         -0.5400    -2.8000     0.7890 hc         1 SNL       0.045700
     39 H71         -1.6880     1.5440     2.1610 hc         1 SNL       0.049700
     40 H72         -1.4330     2.5930     0.7790 hc         1 SNL       0.049700
     41 H101        -1.6550    -1.5980     2.1790 hc         1 SNL       0.040700
     42 H102        -2.9550    -0.4550     2.3960 hc         1 SNL       0.040700
     43 H103        -3.2690    -2.0160     1.6500 hc         1 SNL       0.040700
     44 H111         2.9360    -2.8600     1.9990 hc         1 SNL       0.039033
     45 H112         1.4090    -2.0970     2.4150 hc         1 SNL       0.039033
     46 H113         1.4290    -3.5530     1.4280 hc         1 SNL       0.039033
     47 H121         4.3530    -3.5880    -1.5560 hc         1 SNL       0.070700
     48 H122         4.1890    -3.6160     0.1860 hc         1 SNL       0.070700
     49 H131        -2.9600     1.4660    -1.8790 hc         1 SNL       0.067200
     50 H132        -3.1950    -0.2370    -2.2520 hc         1 SNL       0.067200
     51 H141        -5.3620     1.7990    -1.6150 hc         1 SNL       0.082200
     52 H142        -5.3960     0.5260    -2.8280 hc         1 SNL       0.082200
     53 H171         3.4970     4.2940    -1.5190 hc         1 SNL       0.071700
     54 H172         1.9460     4.0050    -2.3070 hc         1 SNL       0.071700
     55 H173         2.1400     5.3710    -1.1870 hc         1 SNL       0.071700
     56 H19          4.9170     0.2070     0.3380 ha         1 SNL       0.147000
     57 H211         3.2890     1.2750     1.5120 hc         1 SNL       0.066200
     58 H212         2.3570     0.1360     2.4590 hc         1 SNL       0.066200
     59 H22          0.8610     1.8440     1.6170 h1         1 SNL       0.088700
     60 H23          0.0480    -0.3990     1.8610 hc         1 SNL       0.061700
     61 H24          0.7550    -0.7760    -1.0780 hc         1 SNL       0.058700
@<TRIPOS>BOND
     1     1     8 1   
     2     1     9 1   
     3     1    30 1   
     4     1    31 1   
     5     2     3 1   
     6     2     7 1   
     7     2    32 1   
     8     2    33 1   
     9     3     5 1   
    10     3     9 1   
    11     3    10 1   
    12     4     6 1   
    13     4    11 1   
    14     4    20 1   
    15     4    24 1   
    16     5     8 1   
    17     5    23 1   
    18     5    34 1   
    19     6    12 1   
    20     6    35 1   
    21     6    36 1   
    22     7    24 1   
    23     7    37 1   
    24     7    38 1   
    25     8    39 1   
    26     8    40 1   
    27     9    13 1   
    28     9    26 1   
    29    10    41 1   
    30    10    42 1   
    31    10    43 1   
    32    11    44 1   
    33    11    45 1   
    34    11    46 1   
    35    12    18 1   
    36    12    47 1   
    37    12    48 1   
    38    13    14 1   
    39    13    49 1   
    40    13    50 1   
    41    14    15 1   
    42    14    51 1   
    43    14    52 1   
    44    15    25 2   
    45    15    26 1   
    46    16    17 1   
    47    16    27 2   
    48    16    29 1   
    49    17    53 1   
    50    17    54 1   
    51    17    55 1   
    52    18    19 1   
    53    18    28 2   
    54    19    20 2   
    55    19    56 1   
    56    20    21 1   
    57    21    22 1   
    58    21    57 1   
    59    21    58 1   
    60    22    23 1   
    61    22    29 1   
    62    22    59 1   
    63    23    24 1   
    64    23    60 1   
    65    24    61 1   
@<TRIPOS>SUBSTRUCTURE
     1 SNL         1 TEMP              0 ****  ****    0 ROOT
