@<TRIPOS>MOLECULE
SNL
   61    65     1     0     0
SMALL
No Charge or Current Charge


@<TRIPOS>ATOM
      1 C8          -3.4560     1.5120     0.7440 c5         1 SNL      -0.094400
      2 C4          -1.8410    -1.8110    -0.6140 c6         1 SNL      -0.063400
      3 C5          -2.3370    -0.6710     0.3330 c5         1 SNL      -0.030000
      4 C2           2.0670    -1.7800     0.3610 c6         1 SNL      -0.008800
      5 C6          -1.2560     0.4510     0.3630 c5         1 SNL      -0.070700
      6 C1           2.6010    -2.7280    -0.7750 c6         1 SNL      -0.064400
      7 C3          -0.4530    -2.3610    -0.1760 c6         1 SNL      -0.072400
      8 C7          -1.9530     1.5700     1.1970 c5         1 SNL      -0.069400
      9 C9          -3.5610     0.2120    -0.1440 c5         1 SNL       0.183000
     10 C10         -2.6420    -1.3180     1.7360 c3         1 SNL      -0.078100
     11 C11          2.0170    -2.5710     1.7130 c3         1 SNL      -0.083100
     12 C12          4.1160    -3.0220    -0.6720 c6         1 SNL      -0.181400
     13 C13         -3.5680     0.6150    -1.6610 c5         1 SNL      -0.103400
     14 C14         -5.0780     0.9380    -1.7920 c5         1 SNL      -0.200400
     15 C15         -5.7450    -0.0850    -0.8600 c          1 SNL       0.656100
     16 C16          2.1900     3.5370    -0.2560 c          1 SNL       0.614700
     17 C17          2.5410     4.4480    -1.4230 c3         1 SNL      -0.186100
     18 C18          4.9260    -1.7290    -0.6450 c          1 SNL       0.574300
     19 C19          4.3330    -0.6190     0.1380 ce         1 SNL      -0.304200
     20 C20          3.0520    -0.6070     0.5830 c2         1 SNL      -0.033400
     21 C21          2.5320     0.5660     1.4090 c6         1 SNL      -0.045200
     22 C22          1.1940     1.1130     0.8700 c6         1 SNL       0.099300
     23 C23          0.1470    -0.0410     0.8380 c6         1 SNL      -0.031700
     24 C24          0.6390    -1.2330    -0.0640 c6         1 SNL      -0.049700
     25 O57         -6.5980    -0.8840    -1.2160 o          1 SNL      -0.493000
     26 O58         -4.8220    -0.4500     0.0860 os         1 SNL      -0.424100
     27 O59          2.3880     3.8490     0.9100 o          1 SNL      -0.516100
     28 O60          6.0010    -1.6240    -1.2180 o          1 SNL      -0.526100
     29 S61          1.4190     1.9720    -0.7670 ss         1 SNL      -0.394600
     30 H81         -4.1200     1.4610     1.6140 hc         1 SNL       0.057700
     31 H82         -3.7290     2.4270     0.2060 hc         1 SNL       0.057700
     32 H41         -1.7250    -1.4460    -1.6410 hc         1 SNL       0.048200
     33 H42         -2.5790    -2.6240    -0.6570 hc         1 SNL       0.048200
     34 H6          -1.0810     0.8180    -0.6540 hc         1 SNL       0.061700
     35 H11          2.4120    -2.2720    -1.7570 hc         1 SNL       0.050200
     36 H12          2.0540    -3.6800    -0.7730 hc         1 SNL       0.050200
     37 H31         -0.1440    -3.1110    -0.9150 hc         1 SNL       0.045700
     38 H32         -0.5530    -2.9050     0.7700 hc         1 SNL       0.045700
     39 H71         -1.8560     1.3920     2.2750 hc         1 SNL       0.049700
     40 H72         -1.5100     2.5540     1.0050 hc         1 SNL       0.049700
     41 H101        -1.7510    -1.7190     2.2290 hc         1 SNL       0.040700
     42 H102        -3.0950    -0.6140     2.4410 hc         1 SNL       0.040700
     43 H103        -3.3500    -2.1500     1.6340 hc         1 SNL       0.040700
     44 H111         3.0240    -2.8000     2.0790 hc         1 SNL       0.039033
     45 H112         1.5150    -2.0090     2.5080 hc         1 SNL       0.039033
     46 H113         1.4920    -3.5280     1.6090 hc         1 SNL       0.039033
     47 H121         4.4820    -3.6830    -1.4690 hc         1 SNL       0.070700
     48 H122         4.2910    -3.5230     0.2870 hc         1 SNL       0.070700
     49 H131        -2.9240     1.4660    -1.9100 hc         1 SNL       0.067200
     50 H132        -3.3130    -0.2100    -2.3320 hc         1 SNL       0.067200
     51 H141        -5.2620     1.9380    -1.3880 hc         1 SNL       0.082200
     52 H142        -5.4680     0.8660    -2.8130 hc         1 SNL       0.082200
     53 H171         3.1930     3.9010    -2.1120 hc         1 SNL       0.071700
     54 H172         1.6420     4.6050    -2.0290 hc         1 SNL       0.071700
     55 H173         2.9870     5.3950    -1.1010 hc         1 SNL       0.071700
     56 H19          4.9910     0.2320     0.2960 ha         1 SNL       0.197000
     57 H211         3.2780     1.3710     1.4430 hc         1 SNL       0.066200
     58 H212         2.4030     0.2470     2.4520 hc         1 SNL       0.066200
     59 H22          0.8290     1.8740     1.5750 h1         1 SNL       0.088700
     60 H23          0.0390    -0.4010     1.8690 hc         1 SNL       0.061700
     61 H24          0.7500    -0.8200    -1.0770 hc         1 SNL       0.058700
@<TRIPOS>BOND
     1     1     8 1   
     2     1     9 1   
     3     1    30 1   
     4     1    31 1   
     5     2     3 1   
     6     2     7 1   
     7     2    32 1   
     8     2    33 1   
     9     3     5 1   
    10     3     9 1   
    11     3    10 1   
    12     4     6 1   
    13     4    11 1   
    14     4    20 1   
    15     4    24 1   
    16     5     8 1   
    17     5    23 1   
    18     5    34 1   
    19     6    12 1   
    20     6    35 1   
    21     6    36 1   
    22     7    24 1   
    23     7    37 1   
    24     7    38 1   
    25     8    39 1   
    26     8    40 1   
    27     9    13 1   
    28     9    26 1   
    29    10    41 1   
    30    10    42 1   
    31    10    43 1   
    32    11    44 1   
    33    11    45 1   
    34    11    46 1   
    35    12    18 1   
    36    12    47 1   
    37    12    48 1   
    38    13    14 1   
    39    13    49 1   
    40    13    50 1   
    41    14    15 1   
    42    14    51 1   
    43    14    52 1   
    44    15    25 2   
    45    15    26 1   
    46    16    17 1   
    47    16    27 2   
    48    16    29 1   
    49    17    53 1   
    50    17    54 1   
    51    17    55 1   
    52    18    19 1   
    53    18    28 2   
    54    19    20 2   
    55    19    56 1   
    56    20    21 1   
    57    21    22 1   
    58    21    57 1   
    59    21    58 1   
    60    22    23 1   
    61    22    29 1   
    62    22    59 1   
    63    23    24 1   
    64    23    60 1   
    65    24    61 1   
@<TRIPOS>SUBSTRUCTURE
     1 SNL         1 TEMP              0 ****  ****    0 ROOT
