@<TRIPOS>MOLECULE
SNM
   19    18     1     0     0
SMALL
abcg2


@<TRIPOS>ATOM
      1 N           -1.1880    -0.5520     0.2390 n3         1 SNM      -0.665600
      2 CA          -0.0730     0.0210    -0.4970 c3         1 SNM       0.039500
      3 CB          -0.1320     1.5380    -0.6130 c3         1 SNM       0.176600
      4 OG          -0.0880     2.1160     0.6740 oh         1 SNM      -0.625000
      5 C            1.3150    -0.3520     0.0950 c          1 SNM       0.730000
      6 O            1.3750    -0.8020     1.2510 o          1 SNM      -0.723500
      7 C1          -2.4780    -0.0110    -0.1290 c3         1 SNM       0.162100
      8 C2          -1.2120    -1.9920     0.0930 c3         1 SNM       0.162100
      9 O1           2.2800    -0.1350    -0.6690 o          1 SNM      -0.723500
     10 H2          -0.0830    -0.3350    -1.5460 h1         1 SNM       0.004700
     11 H3           0.7230     1.8460    -1.2250 h1         1 SNM      -0.000800
     12 H4          -1.0310     1.8490    -1.1600 h1         1 SNM      -0.000800
     13 H5          -0.0980     3.0710     0.5680 ho         1 SNM       0.399000
     14 H6          -2.7150    -0.1110    -1.2020 h1         1 SNM       0.010700
     15 H7          -3.2580    -0.5380     0.4230 h1         1 SNM       0.010700
     16 H8          -2.5610     1.0430     0.1350 h1         1 SNM       0.010700
     17 H9          -1.4010    -2.3170    -0.9440 h1         1 SNM       0.010700
     18 H10         -0.2680    -2.4280     0.4130 h1         1 SNM       0.010700
     19 H11         -2.0010    -2.4180     0.7160 h1         1 SNM       0.010700
@<TRIPOS>BOND
     1     1     2 1   
     2     1     7 1   
     3     1     8 1   
     4     2     3 1   
     5     2     5 1   
     6     2    10 1   
     7     3     4 1   
     8     3    11 1   
     9     3    12 1   
    10     4    13 1   
    11     5     6 1   
    12     5     9 1   
    13     7    14 1   
    14     7    15 1   
    15     7    16 1   
    16     8    17 1   
    17     8    18 1   
    18     8    19 1   
@<TRIPOS>SUBSTRUCTURE
     1 SNM         1 TEMP              0 ****  ****    0 ROOT
