@<TRIPOS>MOLECULE
SNM
   19    18     1     0     0
SMALL
No Charge or Current Charge


@<TRIPOS>ATOM
      1 N           -1.2630    -0.5600     0.2190 n3         1 SNM      -0.665600
      2 CA          -0.0790     0.0900    -0.4820 c3         1 SNM       0.039500
      3 CB          -0.0670     1.6520    -0.4780 c3         1 SNM       0.176600
      4 OG          -0.1050     2.2040     0.8470 oh         1 SNM      -0.625000
      5 C            1.3700    -0.4030    -0.0930 c          1 SNM       0.730000
      6 O            1.6790    -0.5200     1.0890 o          1 SNM      -0.723500
      7 C1          -2.5780    -0.0720    -0.2570 c3         1 SNM       0.162100
      8 C2          -1.1990    -2.0390     0.1950 c3         1 SNM       0.162100
      9 O1           2.1150    -0.7560    -1.0010 o          1 SNM      -0.723500
     10 H2          -0.1810    -0.1790    -1.5430 h1         1 SNM       0.004700
     11 H3           0.8350     2.0000    -0.9990 h1         1 SNM      -0.000800
     12 H4          -0.9250     2.0200    -1.0550 h1         1 SNM      -0.000800
     13 H5          -0.1580     3.1780     0.7460 ho         1 SNM       0.399000
     14 H6          -2.7020    -0.2690    -1.3300 h1         1 SNM       0.010700
     15 H7          -3.3940    -0.5730     0.2810 h1         1 SNM       0.010700
     16 H8          -2.6870     1.0070    -0.0870 h1         1 SNM       0.010700
     17 H9          -1.2360    -2.4130    -0.8370 h1         1 SNM       0.010700
     18 H10         -0.2750    -2.4040     0.6610 h1         1 SNM       0.010700
     19 H11         -2.0430    -2.4710     0.7480 h1         1 SNM       0.010700
@<TRIPOS>BOND
     1     1     2 1   
     2     1     7 1   
     3     1     8 1   
     4     2     3 1   
     5     2     5 1   
     6     2    10 1   
     7     3     4 1   
     8     3    11 1   
     9     3    12 1   
    10     4    13 1   
    11     5     6 1   
    12     5     9 1   
    13     7    14 1   
    14     7    15 1   
    15     7    16 1   
    16     8    17 1   
    17     8    18 1   
    18     8    19 1   
@<TRIPOS>SUBSTRUCTURE
     1 SNM         1 TEMP              0 ****  ****    0 ROOT
