@<TRIPOS>MOLECULE
SNN
   14    14     1     0     0
SMALL
abcg2


@<TRIPOS>ATOM
      1 N1           0.6300    -1.0460     0.0740 ns         1 SNN      -0.481500
      2 C2          -0.7020    -0.7120     0.0930 c          1 SNN       0.523000
      3 C3          -0.8150     0.7440    -0.3560 c5         1 SNN       0.089500
      4 N3          -1.7740     1.5510     0.3520 n8         1 SNN      -0.985200
      5 C4           0.6220     1.2540    -0.2640 c5         1 SNN      -0.168400
      6 C5           1.4730     0.0130    -0.1720 c          1 SNN       0.568000
      7 O2          -1.6030    -1.4540     0.3970 o          1 SNN      -0.504000
      8 O5           2.6730    -0.0710    -0.2640 o          1 SNN      -0.496000
      9 HN           0.9680    -1.9820     0.2590 hn         1 SNN       0.342500
     10 H3          -1.1130     0.7050    -1.4090 h1         1 SNN       0.092700
     11 HN31        -2.7120     1.2130     0.1810 hn         1 SNN       0.416000
     12 HN32        -1.6220     1.4940     1.3510 hn         1 SNN       0.416000
     13 H41          0.9260     1.8790    -1.1010 hc         1 SNN       0.093700
     14 H42          0.7720     1.8350     0.6500 hc         1 SNN       0.093700
@<TRIPOS>BOND
     1     1     2 1   
     2     1     6 1   
     3     1     9 1   
     4     2     3 1   
     5     2     7 2   
     6     3     4 1   
     7     3     5 1   
     8     3    10 1   
     9     4    11 1   
    10     4    12 1   
    11     5     6 1   
    12     5    13 1   
    13     5    14 1   
    14     6     8 2   
@<TRIPOS>SUBSTRUCTURE
     1 SNN         1 TEMP              0 ****  ****    0 ROOT
