@<TRIPOS>MOLECULE
SNN
   14    14     1     0     0
SMALL
No Charge or Current Charge


@<TRIPOS>ATOM
      1 N1           0.6280    -0.9750     0.1500 ns         1 SNN      -0.481500
      2 C2          -0.7070    -0.7510     0.1050 c          1 SNN       0.523000
      3 C3          -0.8200     0.7350    -0.3910 c5         1 SNN       0.089500
      4 N3          -1.8260     1.6070     0.2900 n8         1 SNN      -0.985200
      5 C4           0.6390     1.2700    -0.2210 c5         1 SNN      -0.168400
      6 C5           1.5050     0.0060    -0.1630 c          1 SNN       0.568000
      7 O2          -1.5730    -1.5600     0.4030 o          1 SNN      -0.504000
      8 O5           2.6600    -0.1780    -0.5080 o          1 SNN      -0.496000
      9 HN           0.9680    -1.9130     0.3080 hn         1 SNN       0.342500
     10 H3          -1.0750     0.6780    -1.4610 h1         1 SNN       0.092700
     11 HN31        -2.7570     1.1730     0.2180 hn         1 SNN       0.416000
     12 HN32        -1.6530     1.6100     1.3040 hn         1 SNN       0.416000
     13 H41          0.9900     1.9600    -0.9950 hc         1 SNN       0.093700
     14 H42          0.7410     1.7600     0.7520 hc         1 SNN       0.093700
@<TRIPOS>BOND
     1     1     2 1   
     2     1     6 1   
     3     1     9 1   
     4     2     3 1   
     5     2     7 2   
     6     3     4 1   
     7     3     5 1   
     8     3    10 1   
     9     4    11 1   
    10     4    12 1   
    11     5     6 1   
    12     5    13 1   
    13     5    14 1   
    14     6     8 2   
@<TRIPOS>SUBSTRUCTURE
     1 SNN         1 TEMP              0 ****  ****    0 ROOT
