@<TRIPOS>MOLECULE
SNO
   19    20     1     0     0
SMALL
abcg2


@<TRIPOS>ATOM
      1 C1           1.3840    -0.0120    -0.0150 ca         1 SNO      -0.175200
      2 C2           0.8500    -1.2830    -0.1690 ca         1 SNO      -0.046000
      3 C3          -0.5240    -1.4210    -0.2530 ca         1 SNO      -0.107500
      4 C4          -1.3590    -0.3090    -0.1770 ca         1 SNO      -0.037300
      5 C5          -0.7980     0.9570    -0.0330 ca         1 SNO      -0.107500
      6 C6           0.5740     1.1130     0.0510 ca         1 SNO      -0.046000
      7 C7          -2.8280    -0.5030    -0.2360 cx         1 SNO       0.115600
      8 C8          -3.6960     0.0150     0.8260 cx         1 SNO       0.085600
      9 N1           2.8260     0.1470     0.0710 no         1 SNO       0.693200
     10 O1           3.5120    -0.8470     0.0220 o          1 SNO      -0.397500
     11 O2           3.2690     1.2660     0.1880 o          1 SNO      -0.397500
     12 O3          -3.6230     0.6440    -0.4400 op         1 SNO      -0.422000
     13 H22          1.4830    -2.1550    -0.2290 ha         1 SNO       0.153000
     14 H33         -0.9470    -2.4090    -0.3820 ha         1 SNO       0.134500
     15 H55         -1.4300     1.8340     0.0110 ha         1 SNO       0.134500
     16 H66          0.9940     2.1010     0.1640 ha         1 SNO       0.153000
     17 H77         -3.1540    -1.3960    -0.7670 h1         1 SNO       0.099700
     18 H81         -4.6250    -0.5000     1.0510 h1         1 SNO       0.083200
     19 H82         -3.2510     0.5600     1.6550 h1         1 SNO       0.083200
@<TRIPOS>BOND
     1     1     2 ar  
     2     1     6 ar  
     3     1     9 1   
     4     2     3 ar  
     5     2    13 1   
     6     3     4 ar  
     7     3    14 1   
     8     4     5 ar  
     9     4     7 1   
    10     5     6 ar  
    11     5    15 1   
    12     6    16 1   
    13     7     8 1   
    14     7    12 1   
    15     7    17 1   
    16     8    12 1   
    17     8    18 1   
    18     8    19 1   
    19     9    10 1   
    20     9    11 1   
@<TRIPOS>SUBSTRUCTURE
     1 SNO         1 TEMP              0 ****  ****    0 ROOT
