@<TRIPOS>MOLECULE
SNO
   19    20     1     0     0
SMALL
No Charge or Current Charge


@<TRIPOS>ATOM
      1 C1           1.4490    -0.0120    -0.0250 ca         1 SNO      -0.175200
      2 C2           0.8910    -1.2940    -0.2370 ca         1 SNO      -0.046000
      3 C3          -0.5040    -1.4640    -0.2820 ca         1 SNO      -0.107500
      4 C4          -1.3680    -0.3650    -0.1150 ca         1 SNO      -0.037300
      5 C5          -0.8130     0.9140     0.0940 ca         1 SNO      -0.107500
      6 C6           0.5810     1.0920     0.1400 ca         1 SNO      -0.046000
      7 C7          -2.8620    -0.5750    -0.1650 cx         1 SNO       0.115600
      8 C8          -3.8080     0.1350     0.7610 cx         1 SNO       0.085600
      9 N1           2.9360     0.1730     0.0230 no         1 SNO       0.693200
     10 O1           3.6560    -0.8230    -0.1280 o          1 SNO      -0.397500
     11 O2           3.3780     1.3150     0.2110 o          1 SNO      -0.397500
     12 O3          -3.6940     0.5150    -0.6300 op         1 SNO      -0.422000
     13 H22          1.5300    -2.1660    -0.3690 ha         1 SNO       0.153000
     14 H33         -0.9140    -2.4590    -0.4450 ha         1 SNO       0.134500
     15 H55         -1.4610     1.7790     0.2190 ha         1 SNO       0.134500
     16 H66          0.9770     2.0930     0.3030 ha         1 SNO       0.153000
     17 H77         -3.1600    -1.5580    -0.5310 h1         1 SNO       0.099700
     18 H81         -4.7430    -0.3530     1.0370 h1         1 SNO       0.083200
     19 H82         -3.4130     0.8550     1.4780 h1         1 SNO       0.083200
@<TRIPOS>BOND
     1     1     2 ar  
     2     1     6 ar  
     3     1     9 1   
     4     2     3 ar  
     5     2    13 1   
     6     3     4 ar  
     7     3    14 1   
     8     4     5 ar  
     9     4     7 1   
    10     5     6 ar  
    11     5    15 1   
    12     6    16 1   
    13     7     8 1   
    14     7    12 1   
    15     7    17 1   
    16     8    12 1   
    17     8    18 1   
    18     8    19 1   
    19     9    10 1   
    20     9    11 1   
@<TRIPOS>SUBSTRUCTURE
     1 SNO         1 TEMP              0 ****  ****    0 ROOT
