@<TRIPOS>MOLECULE
SNP
   40    41     1     0     0
SMALL
No Charge or Current Charge


@<TRIPOS>ATOM
      1 C1           0.7590     0.0220    -1.6740 ca         1 SNP       0.161100
      2 C2           2.1670    -0.0340    -1.7820 ca         1 SNP      -0.222000
      3 C3           2.7790    -0.1140    -3.0430 ca         1 SNP      -0.068000
      4 C4           1.9940    -0.1390    -4.2060 ca         1 SNP      -0.138000
      5 C5          -0.1860    -0.1080    -5.2880 ca         1 SNP      -0.114000
      6 C6          -1.5860    -0.0520    -5.2080 ca         1 SNP      -0.094000
      7 C7          -2.2140     0.0300    -3.9560 ca         1 SNP      -0.126000
      8 C8          -1.4440     0.0550    -2.7800 ca         1 SNP      -0.070000
      9 C9          -0.0330    -0.0020    -2.8480 ca         1 SNP      -0.057000
     10 C10          0.5920    -0.0830    -4.1150 ca         1 SNP      -0.006000
     11 O1           0.1300     0.0990    -0.4430 os         1 SNP      -0.331100
     12 C11          0.8620     0.1550     0.7980 c3         1 SNP       0.129600
     13 C12         -0.1570     0.2410     1.9600 c3         1 SNP       0.160300
     14 O2          -1.0820    -0.8680     1.8840 oh         1 SNP      -0.639000
     15 C13          0.5450     0.2610     3.3460 c3         1 SNP       0.134800
     16 N1          -0.4410     0.3770     4.4480 n7         1 SNP      -0.863400
     17 C14          0.0810     0.3250     5.8250 c3         1 SNP       0.174500
     18 C15         -1.0140     0.8360     6.7820 c3         1 SNP      -0.107100
     19 C16          0.5280    -1.1090     6.1870 c3         1 SNP      -0.107100
     20 H2           2.8030    -0.0180    -0.9020 ha         1 SNP       0.113000
     21 H3           3.8640    -0.1570    -3.1200 ha         1 SNP       0.110000
     22 H4           2.4790    -0.2010    -5.1780 ha         1 SNP       0.115000
     23 H5           0.2940    -0.1700    -6.2620 ha         1 SNP       0.113000
     24 H6          -2.1840    -0.0710    -6.1170 ha         1 SNP       0.112000
     25 H7          -3.2990     0.0740    -3.8940 ha         1 SNP       0.114000
     26 H8          -1.9520     0.1200    -1.8200 ha         1 SNP       0.131000
     27 H112         1.5150     1.0380     0.8230 h1         1 SNP       0.038200
     28 H111         1.4840    -0.7420     0.9230 h1         1 SNP       0.038200
     29 H12         -0.6990     1.1910     1.8490 h1         1 SNP       0.103700
     30 H2O1        -1.2910    -0.9790     0.9310 ho         1 SNP       0.434000
     31 H132         1.2480     1.1050     3.3790 h1         1 SNP       0.030700
     32 H131         1.1340    -0.6610     3.4450 h1         1 SNP       0.030700
     33 H1          -1.1280    -0.3790     4.3270 hn         1 SNP       0.421000
     34 H14          0.9470     0.9950     5.9260 h1         1 SNP       0.053700
     35 H153        -0.6480     0.8410     7.8160 hc         1 SNP       0.037700
     36 H152        -1.3060     1.8610     6.5230 hc         1 SNP       0.037700
     37 H151        -1.9060     0.2000     6.7370 hc         1 SNP       0.037700
     38 H163        -0.2950    -1.8230     6.0580 hc         1 SNP       0.037700
     39 H162         1.3700    -1.4320     5.5650 hc         1 SNP       0.037700
     40 H161         0.8550    -1.1530     7.2330 hc         1 SNP       0.037700
@<TRIPOS>BOND
     1     1     2 ar  
     2     1     9 ar  
     3     1    11 1   
     4     2     3 ar  
     5     2    20 1   
     6     3     4 ar  
     7     3    21 1   
     8     4    10 ar  
     9     4    22 1   
    10     5     6 ar  
    11     5    10 ar  
    12     5    23 1   
    13     6     7 ar  
    14     6    24 1   
    15     7     8 ar  
    16     7    25 1   
    17     8     9 ar  
    18     8    26 1   
    19     9    10 ar  
    20    11    12 1   
    21    12    13 1   
    22    12    27 1   
    23    12    28 1   
    24    13    14 1   
    25    13    15 1   
    26    13    29 1   
    27    14    30 1   
    28    15    16 1   
    29    15    31 1   
    30    15    32 1   
    31    16    17 1   
    32    16    33 1   
    33    17    18 1   
    34    17    19 1   
    35    17    34 1   
    36    18    35 1   
    37    18    36 1   
    38    18    37 1   
    39    19    38 1   
    40    19    39 1   
    41    19    40 1   
@<TRIPOS>SUBSTRUCTURE
     1 SNP         1 TEMP              0 ****  ****    0 ROOT
