@<TRIPOS>MOLECULE
SNP
   40    41     1     0     0
SMALL
abcg2


@<TRIPOS>ATOM
      1 C1           0.7400     0.0560    -1.6080 ca         1 SNP       0.161100
      2 C2           2.1030    -0.0910    -1.6840 ca         1 SNP      -0.222000
      3 C3           2.7320    -0.2110    -2.9410 ca         1 SNP      -0.068000
      4 C4           2.0110    -0.1850    -4.1000 ca         1 SNP      -0.138000
      5 C5          -0.1750     0.0010    -5.2320 ca         1 SNP      -0.114000
      6 C6          -1.5340     0.1480    -5.1740 ca         1 SNP      -0.094000
      7 C7          -2.1790     0.2660    -3.9280 ca         1 SNP      -0.126000
      8 C8          -1.4540     0.2370    -2.7650 ca         1 SNP      -0.070000
      9 C9          -0.0480     0.0890    -2.7980 ca         1 SNP      -0.057000
     10 C10          0.6040    -0.0320    -4.0520 ca         1 SNP      -0.006000
     11 O1           0.0480     0.1760    -0.4630 os         1 SNP      -0.331100
     12 C11          0.7370     0.0790     0.7670 c3         1 SNP       0.129600
     13 C12         -0.2850     0.1170     1.8900 c3         1 SNP       0.160300
     14 O2          -1.2200    -0.9340     1.7870 oh         1 SNP      -0.639000
     15 C13          0.4260     0.1190     3.2380 c3         1 SNP       0.134800
     16 N1          -0.5250     0.2770     4.3170 n7         1 SNP      -0.863400
     17 C14          0.0620     0.3660     5.6480 c3         1 SNP       0.174500
     18 C15         -1.0150     0.7980     6.6340 c3         1 SNP      -0.107100
     19 C16          0.7370    -0.9210     6.1250 c3         1 SNP      -0.107100
     20 H2           2.7190    -0.1150    -0.7950 ha         1 SNP       0.113000
     21 H3           3.8080    -0.3230    -2.9720 ha         1 SNP       0.110000
     22 H4           2.5030    -0.2800    -5.0600 ha         1 SNP       0.115000
     23 H5           0.3250    -0.0930    -6.1880 ha         1 SNP       0.113000
     24 H6          -2.1190     0.1740    -6.0850 ha         1 SNP       0.112000
     25 H7          -3.2550     0.3770    -3.8890 ha         1 SNP       0.114000
     26 H8          -1.9660     0.3270    -1.8170 ha         1 SNP       0.131000
     27 H112         1.4430     0.9090     0.8810 h1         1 SNP       0.038200
     28 H111         1.3130    -0.8540     0.8120 h1         1 SNP       0.038200
     29 H12         -0.8680     1.0400     1.8080 h1         1 SNP       0.103700
     30 H2O1        -0.7490    -1.7720     1.8620 ho         1 SNP       0.434000
     31 H132         1.1220     0.9620     3.2690 h1         1 SNP       0.030700
     32 H131         1.0440    -0.7920     3.3110 h1         1 SNP       0.030700
     33 H1          -1.1860    -0.4920     4.2970 hn         1 SNP       0.421000
     34 H14          0.8210     1.1550     5.6050 h1         1 SNP       0.053700
     35 H153        -0.6010     0.9240     7.6350 hc         1 SNP       0.037700
     36 H152        -1.4680     1.7440     6.3330 hc         1 SNP       0.037700
     37 H151        -1.8090     0.0500     6.6980 hc         1 SNP       0.037700
     38 H163         0.0120    -1.7370     6.1760 hc         1 SNP       0.037700
     39 H162         1.5470    -1.2330     5.4650 hc         1 SNP       0.037700
     40 H161         1.1630    -0.7930     7.1220 hc         1 SNP       0.037700
@<TRIPOS>BOND
     1     1     2 ar  
     2     1     9 ar  
     3     1    11 1   
     4     2     3 ar  
     5     2    20 1   
     6     3     4 ar  
     7     3    21 1   
     8     4    10 ar  
     9     4    22 1   
    10     5     6 ar  
    11     5    10 ar  
    12     5    23 1   
    13     6     7 ar  
    14     6    24 1   
    15     7     8 ar  
    16     7    25 1   
    17     8     9 ar  
    18     8    26 1   
    19     9    10 ar  
    20    11    12 1   
    21    12    13 1   
    22    12    27 1   
    23    12    28 1   
    24    13    14 1   
    25    13    15 1   
    26    13    29 1   
    27    14    30 1   
    28    15    16 1   
    29    15    31 1   
    30    15    32 1   
    31    16    17 1   
    32    16    33 1   
    33    17    18 1   
    34    17    19 1   
    35    17    34 1   
    36    18    35 1   
    37    18    36 1   
    38    18    37 1   
    39    19    38 1   
    40    19    39 1   
    41    19    40 1   
@<TRIPOS>SUBSTRUCTURE
     1 SNP         1 TEMP              0 ****  ****    0 ROOT
