@<TRIPOS>MOLECULE
SNQ
   23    24     1     0     0
SMALL
No Charge or Current Charge


@<TRIPOS>ATOM
      1 N1         -37.2000    43.8020    84.1780 nv         1 SNQ      -1.081000
      2 C4         -37.3330    45.8670    82.9670 ca         1 SNQ      -0.161000
      3 C5         -36.8330    46.7280    81.9760 ca         1 SNQ      -0.068000
      4 C6         -35.7020    46.3660    81.2170 ca         1 SNQ      -0.020200
      5 C7         -34.8670    48.5620    80.5150 cc         1 SNQ      -0.185500
      6 C8         -34.5550    49.0880    79.2880 cd         1 SNQ      -0.175000
      7 C10        -35.2050    46.9480    78.8810 cc         1 SNQ      -0.185500
      8 N          -35.2380    47.2510    80.2390 na         1 SNQ       0.108200
      9 C1         -35.0650    45.1230    81.4710 ca         1 SNQ       0.033000
     10 C2         -35.5790    44.2690    82.4700 ca         1 SNQ      -0.149000
     11 C3         -36.7090    44.6380    83.2120 ca         1 SNQ       0.308000
     12 C9         -34.7610    48.1030    78.2910 cd         1 SNQ      -0.175000
     13 N2         -32.9270    44.3660    80.1790 n1         1 SNQ      -0.435000
     14 H1         -38.0990    44.0040    84.6150 hn         1 SNQ       0.463000
     15 H2         -36.8440    42.8510    84.2610 hn         1 SNQ       0.463000
     16 H3         -38.2080    46.1590    83.5410 ha         1 SNQ       0.121000
     17 H4         -37.3300    47.6790    81.7920 ha         1 SNQ       0.132000
     18 H5         -34.8520    48.9840    81.5120 h4         1 SNQ       0.147000
     19 H6         -34.2130    50.1040    79.1100 ha         1 SNQ       0.132500
     20 H7         -35.4860    45.9860    78.4720 h4         1 SNQ       0.147000
     21 H8         -35.0940    43.3180    82.6710 ha         1 SNQ       0.129000
     22 H9         -34.6040    48.2420    77.2250 ha         1 SNQ       0.132500
     23 C          -33.8840    44.7110    80.7530 cg         1 SNQ       0.319000
@<TRIPOS>BOND
     1     1    11 1   
     2     1    14 1   
     3     1    15 1   
     4     2     3 ar  
     5     2    11 ar  
     6     2    16 1   
     7     3     4 ar  
     8     3    17 1   
     9     4     8 1   
    10     4     9 ar  
    11     5     6 2   
    12     5     8 1   
    13     5    18 1   
    14     6    12 1   
    15     6    19 1   
    16     7     8 1   
    17     7    12 2   
    18     7    20 1   
    19     9    10 ar  
    20     9    23 1   
    21    10    11 ar  
    22    10    21 1   
    23    12    22 1   
    24    13    23 3   
@<TRIPOS>SUBSTRUCTURE
     1 SNQ         1 TEMP              0 ****  ****    0 ROOT
