@<TRIPOS>MOLECULE
SNQ
   23    24     1     0     0
SMALL
abcg2


@<TRIPOS>ATOM
      1 N1         -37.1430    43.8000    84.2370 nv         1 SNQ      -1.081000
      2 C4         -37.3170    45.8610    82.9980 ca         1 SNQ      -0.161000
      3 C5         -36.8510    46.7130    82.0150 ca         1 SNQ      -0.068000
      4 C6         -35.7460    46.3800    81.2450 ca         1 SNQ      -0.020200
      5 C7         -34.8640    48.5430    80.4590 cc         1 SNQ      -0.185500
      6 C8         -34.5130    49.0810    79.2510 cd         1 SNQ      -0.175000
      7 C10        -35.1940    46.9680    78.9090 cc         1 SNQ      -0.185500
      8 N          -35.2750    47.2530    80.2460 na         1 SNQ       0.108200
      9 C1         -35.1150    45.1590    81.4920 ca         1 SNQ       0.033000
     10 C2         -35.5900    44.2850    82.4640 ca         1 SNQ      -0.149000
     11 C3         -36.7020    44.6240    83.2400 ca         1 SNQ       0.308000
     12 C9         -34.7240    48.0800    78.2650 cd         1 SNQ      -0.175000
     13 N2         -32.9820    44.4900    80.2040 n1         1 SNQ      -0.435000
     14 H1         -38.0920    43.9290    84.5480 hn         1 SNQ       0.463000
     15 H2         -36.8770    42.8310    84.1830 hn         1 SNQ       0.463000
     16 H3         -38.1840    46.1500    83.5790 ha         1 SNQ       0.121000
     17 H4         -37.3600    47.6510    81.8360 ha         1 SNQ       0.132000
     18 H5         -34.8390    48.9570    81.4540 h4         1 SNQ       0.147000
     19 H6         -34.1390    50.0800    79.0900 ha         1 SNQ       0.132500
     20 H7         -35.5000    46.0070    78.5270 h4         1 SNQ       0.147000
     21 H8         -35.0840    43.3410    82.6250 ha         1 SNQ       0.129000
     22 H9         -34.5570    48.1690    77.2030 ha         1 SNQ       0.132500
     23 C          -33.9400    44.7970    80.7660 cg         1 SNQ       0.319000
@<TRIPOS>BOND
     1     1    11 1   
     2     1    14 1   
     3     1    15 1   
     4     2     3 ar  
     5     2    11 ar  
     6     2    16 1   
     7     3     4 ar  
     8     3    17 1   
     9     4     8 1   
    10     4     9 ar  
    11     5     6 2   
    12     5     8 1   
    13     5    18 1   
    14     6    12 1   
    15     6    19 1   
    16     7     8 1   
    17     7    12 2   
    18     7    20 1   
    19     9    10 ar  
    20     9    23 1   
    21    10    11 ar  
    22    10    21 1   
    23    12    22 1   
    24    13    23 3   
@<TRIPOS>SUBSTRUCTURE
     1 SNQ         1 TEMP              0 ****  ****    0 ROOT
