@<TRIPOS>MOLECULE
SNR
   28    29     1     0     0
SMALL
No Charge or Current Charge


@<TRIPOS>ATOM
      1 C1          -1.2450     0.4040    -3.2140 c          1 SNR       0.620000
      2 N2          -0.0440     0.1720    -3.7900 ns         1 SNR      -0.525900
      3 C3           0.7820    -0.7710    -3.0320 c5         1 SNR       0.099700
      4 C4          -0.1900    -1.1990    -1.8560 c5         1 SNR       0.103700
      5 N5          -1.3720    -0.3700    -2.1140 ns         1 SNR      -0.521900
      6 C6           0.4460    -0.7100    -0.5030 c5         1 SNR       0.066300
      7 S7           1.2700     0.8980    -0.9040 ss         1 SNR      -0.384000
      8 C8           1.9380     0.0990    -2.4340 c5         1 SNR       0.026600
      9 O11         -2.0870     1.1760    -3.6310 o          1 SNR      -0.600000
     10 C12         -0.5240    -0.5740     0.7020 c3         1 SNR      -0.068400
     11 C13          0.1730    -0.2860     2.0530 c3         1 SNR      -0.055400
     12 C14         -0.8140    -0.2060     3.2430 c3         1 SNR      -0.207400
     13 C15         -0.0490     0.0770     4.5490 c          1 SNR       0.718000
     14 O16          0.3720    -0.8760     5.1880 o          1 SNR      -0.739500
     15 O17          0.1440     1.2410     4.8640 o          1 SNR      -0.739500
     16 HN2          0.2150     0.6780    -4.6270 hn         1 SNR       0.332500
     17 H3           1.1400    -1.6130    -3.6400 h1         1 SNR       0.050700
     18 H4          -0.4200    -2.2730    -1.8570 h1         1 SNR       0.061700
     19 HN5         -2.2170    -0.3160    -1.5610 hn         1 SNR       0.349500
     20 H6           1.2320    -1.4210    -0.2130 h1         1 SNR       0.070700
     21 H81          2.3130     0.8520    -3.1400 h1         1 SNR       0.069200
     22 H82          2.7850    -0.5400    -2.1490 h1         1 SNR       0.069200
     23 H11         -1.0980    -1.5040     0.8020 hc         1 SNR       0.038700
     24 H21         -1.2540     0.2220     0.5100 hc         1 SNR       0.038700
     25 H12          0.7260     0.6590     1.9840 hc         1 SNR       0.047200
     26 H22          0.9130    -1.0720     2.2500 hc         1 SNR       0.047200
     27 H13         -1.3060    -1.1860     3.2920 hc         1 SNR       0.015700
     28 H23         -1.4980     0.6200     3.0120 hc         1 SNR       0.015700
@<TRIPOS>BOND
     1     1     2 1   
     2     1     5 1   
     3     1     9 2   
     4     2     3 1   
     5     2    16 1   
     6     3     4 1   
     7     3     8 1   
     8     3    17 1   
     9     4     5 1   
    10     4     6 1   
    11     4    18 1   
    12     5    19 1   
    13     6     7 1   
    14     6    10 1   
    15     6    20 1   
    16     7     8 1   
    17     8    21 1   
    18     8    22 1   
    19    10    11 1   
    20    10    23 1   
    21    10    24 1   
    22    11    12 1   
    23    11    25 1   
    24    11    26 1   
    25    12    13 1   
    26    12    27 1   
    27    12    28 1   
    28    13    14 1   
    29    13    15 1   
@<TRIPOS>SUBSTRUCTURE
     1 SNR         1 TEMP              0 ****  ****    0 ROOT
