@<TRIPOS>MOLECULE
SNR
   28    29     1     0     0
SMALL
abcg2


@<TRIPOS>ATOM
      1 C1          -1.4170     0.2880    -3.1530 c          1 SNR       0.620000
      2 N2          -0.1650     0.3080    -3.6780 ns         1 SNR      -0.525900
      3 C3           0.7630    -0.5600    -3.0030 c5         1 SNR       0.099700
      4 C4          -0.0890    -1.1160    -1.8210 c5         1 SNR       0.103700
      5 N5          -1.3870    -0.5550    -2.0890 ns         1 SNR      -0.521900
      6 C6           0.5410    -0.6640    -0.4930 c5         1 SNR       0.066300
      7 S7           1.3720     0.9160    -0.8690 ss         1 SNR      -0.384000
      8 C8           1.9570     0.2010    -2.4250 c5         1 SNR       0.026600
      9 O11         -2.3890     0.9020    -3.5670 o          1 SNR      -0.600000
     10 C12         -0.4280    -0.5630     0.6710 c3         1 SNR      -0.068400
     11 C13          0.2510    -0.2720     2.0050 c3         1 SNR      -0.055400
     12 C14         -0.7400    -0.2480     3.1560 c3         1 SNR      -0.207400
     13 C15         -0.1500     0.0380     4.5490 c          1 SNR       0.718000
     14 O16         -0.9670     0.0490     5.4940 o          1 SNR      -0.739500
     15 O17          1.0770     0.2390     4.6330 o          1 SNR      -0.739500
     16 HN2          0.0220     0.7050    -4.5820 hn         1 SNR       0.332500
     17 H3           1.1150    -1.3580    -3.6620 h1         1 SNR       0.050700
     18 H4          -0.1310    -2.2080    -1.8300 h1         1 SNR       0.061700
     19 HN5         -2.1800    -0.6750    -1.4830 hn         1 SNR       0.349500
     20 H6           1.3220    -1.3900    -0.2440 h1         1 SNR       0.070700
     21 H81          2.3110     0.9830    -3.0960 h1         1 SNR       0.069200
     22 H82          2.7860    -0.4830    -2.2300 h1         1 SNR       0.069200
     23 H11         -0.9660    -1.5160     0.7410 hc         1 SNR       0.038700
     24 H21         -1.1800     0.2040     0.4620 hc         1 SNR       0.038700
     25 H12          0.7750     0.6870     1.9520 hc         1 SNR       0.047200
     26 H22          1.0200    -1.0270     2.1870 hc         1 SNR       0.047200
     27 H13         -1.2760    -1.2040     3.2010 hc         1 SNR       0.015700
     28 H23         -1.5160     0.5000     2.9580 hc         1 SNR       0.015700
@<TRIPOS>BOND
     1     1     2 1   
     2     1     5 1   
     3     1     9 2   
     4     2     3 1   
     5     2    16 1   
     6     3     4 1   
     7     3     8 1   
     8     3    17 1   
     9     4     5 1   
    10     4     6 1   
    11     4    18 1   
    12     5    19 1   
    13     6     7 1   
    14     6    10 1   
    15     6    20 1   
    16     7     8 1   
    17     8    21 1   
    18     8    22 1   
    19    10    11 1   
    20    10    23 1   
    21    10    24 1   
    22    11    12 1   
    23    11    25 1   
    24    11    26 1   
    25    12    13 1   
    26    12    27 1   
    27    12    28 1   
    28    13    14 1   
    29    13    15 1   
@<TRIPOS>SUBSTRUCTURE
     1 SNR         1 TEMP              0 ****  ****    0 ROOT
