@<TRIPOS>MOLECULE
SNS
   67    71     1     0     0
SMALL
abcg2


@<TRIPOS>ATOM
      1 N1          -0.0500     0.7520    -0.1900 nb         1 SNS      -0.684000
      2 C2          -1.1990     1.4060    -0.0240 ca         1 SNS       0.330500
      3 C3          -2.4160     0.7060    -0.2160 ca         1 SNS      -0.177000
      4 C4          -3.6280     1.3250    -0.0610 ca         1 SNS       0.005000
      5 C5          -3.6810     2.7070     0.3010 ca         1 SNS      -0.120000
      6 C6          -2.5290     3.4000     0.4940 ca         1 SNS      -0.068000
      7 C7          -1.2570     2.7870     0.3450 ca         1 SNS      -0.115000
      8 C8          -0.0590     3.4640     0.5320 ca         1 SNS      -0.023000
      9 C9           1.1430     2.7910     0.3620 ca         1 SNS      -0.115000
     10 C10          2.4100     3.4060     0.5340 ca         1 SNS      -0.068000
     11 C11          3.5690     2.7160     0.3610 ca         1 SNS      -0.120000
     12 C12          3.5260     1.3360    -0.0070 ca         1 SNS       0.005000
     13 C13          2.3160     0.7140    -0.1820 ca         1 SNS      -0.177000
     14 C14          1.0950     1.4100    -0.0060 ca         1 SNS       0.330500
     15 N15          4.6720     0.5730    -0.2230 ns         1 SNS      -0.150500
     16 C16          5.9840     0.8790    -0.0230 c          1 SNS       0.610600
     17 O17          6.3750     1.9350     0.4380 o          1 SNS      -0.578100
     18 C18          6.9350    -0.2110    -0.4600 c3         1 SNS      -0.163900
     19 C19          8.1280    -0.3480     0.4790 c3         1 SNS       0.181800
     20 N20          9.0320    -1.3830     0.0330 n3         1 SNS      -0.717600
     21 C21         10.0660    -1.7010     0.9990 c5         1 SNS       0.131800
     22 C22         10.9930    -2.6080     0.2220 c5         1 SNS       0.193300
     23 F23         10.4930    -3.9150     0.2400 f          1 SNS      -0.260500
     24 C24         10.9380    -2.0460    -1.1980 c5         1 SNS      -0.114400
     25 C25          9.7520    -1.0710    -1.1930 c5         1 SNS       0.157300
     26 N26         -4.7760     0.5770    -0.3200 ns         1 SNS      -0.150500
     27 C27         -6.0560     0.7990     0.0900 c          1 SNS       0.610600
     28 O28         -6.3850     1.7280     0.8030 o          1 SNS      -0.578100
     29 C29         -7.0490    -0.2030    -0.4540 c3         1 SNS      -0.163900
     30 C30         -8.2390    -0.4100     0.4720 c3         1 SNS       0.181800
     31 N31         -9.2520    -1.2330    -0.1450 n3         1 SNS      -0.717600
     32 C32        -10.4740    -1.3260     0.6280 c5         1 SNS       0.131800
     33 C33        -11.2600    -2.3860    -0.1070 c5         1 SNS       0.193300
     34 F34        -11.8930    -1.8120    -1.2160 f          1 SNS      -0.260500
     35 C35        -10.1840    -3.3680    -0.5680 c5         1 SNS      -0.114400
     36 C36         -8.8560    -2.6140    -0.3910 c5         1 SNS       0.157300
     37 H3          -2.3610    -0.3410    -0.4920 ha         1 SNS       0.128000
     38 H5          -4.6280     3.2080     0.4120 ha         1 SNS       0.148000
     39 H6          -2.5740     4.4490     0.7590 ha         1 SNS       0.118000
     40 H8          -0.0630     4.5120     0.8080 ha         1 SNS       0.119000
     41 H10          2.4490     4.4530     0.8080 ha         1 SNS       0.118000
     42 H11          4.5130     3.2150     0.5010 ha         1 SNS       0.148000
     43 H13          2.2670    -0.3330    -0.4600 ha         1 SNS       0.128000
     44 HN15         4.4900    -0.3580    -0.5670 hn         1 SNS       0.153500
     45 H18          6.4270    -1.1740    -0.5460 hc         1 SNS       0.069200
     46 H18A         7.2720     0.0520    -1.4680 hc         1 SNS       0.069200
     47 H19          8.6440     0.6210     0.5720 h1         1 SNS       0.048200
     48 H19A         7.7670    -0.6140     1.4750 h1         1 SNS       0.048200
     49 H21         10.6310    -0.8080     1.3190 h1         1 SNS       0.051700
     50 H21A         9.6600    -2.1720     1.8960 h1         1 SNS       0.051700
     51 H22         12.0000    -2.6460     0.6370 h1         1 SNS       0.060700
     52 H24         11.8660    -1.5350    -1.4510 hc         1 SNS       0.061950
     53 H24A        10.8120    -2.8540    -1.9190 hc         1 SNS       0.061950
     54 H25          9.1130    -1.1810    -2.0710 h1         1 SNS       0.039450
     55 H25A        10.1180    -0.0320    -1.1860 h1         1 SNS       0.039450
     56 HN26        -4.6140    -0.2860    -0.8180 hn         1 SNS       0.153500
     57 H29         -7.4050     0.1820    -1.4160 hc         1 SNS       0.069200
     58 H29A        -6.5550    -1.1530    -0.6700 hc         1 SNS       0.069200
     59 H30         -7.8950    -0.8430     1.4270 h1         1 SNS       0.048200
     60 H30A        -8.6830     0.5590     0.7060 h1         1 SNS       0.048200
     61 H32        -10.2970    -1.6730     1.6610 h1         1 SNS       0.051700
     62 H32A       -10.9950    -0.3670     0.6880 h1         1 SNS       0.051700
     63 H33        -12.0370    -2.8450     0.5030 h1         1 SNS       0.060700
     64 H35        -10.2030    -4.2680     0.0440 hc         1 SNS       0.061950
     65 H35A       -10.3630    -3.6740    -1.5990 hc         1 SNS       0.061950
     66 H36         -8.2080    -2.6910    -1.2650 h1         1 SNS       0.039450
     67 H36A        -8.3000    -3.0280     0.4660 h1         1 SNS       0.039450
@<TRIPOS>BOND
     1     1     2 ar  
     2     1    14 ar  
     3     2     3 ar  
     4     2     7 ar  
     5     3     4 ar  
     6     3    37 1   
     7     4     5 ar  
     8     4    26 1   
     9     5     6 ar  
    10     5    38 1   
    11     6     7 ar  
    12     6    39 1   
    13     7     8 ar  
    14     8     9 ar  
    15     8    40 1   
    16     9    10 ar  
    17     9    14 ar  
    18    10    11 ar  
    19    10    41 1   
    20    11    12 ar  
    21    11    42 1   
    22    12    13 ar  
    23    12    15 1   
    24    13    14 ar  
    25    13    43 1   
    26    15    16 1   
    27    15    44 1   
    28    16    17 2   
    29    16    18 1   
    30    18    19 1   
    31    18    45 1   
    32    18    46 1   
    33    19    20 1   
    34    19    47 1   
    35    19    48 1   
    36    20    21 1   
    37    20    25 1   
    38    21    22 1   
    39    21    49 1   
    40    21    50 1   
    41    22    23 1   
    42    22    24 1   
    43    22    51 1   
    44    24    25 1   
    45    24    52 1   
    46    24    53 1   
    47    25    54 1   
    48    25    55 1   
    49    26    27 1   
    50    26    56 1   
    51    27    28 2   
    52    27    29 1   
    53    29    30 1   
    54    29    57 1   
    55    29    58 1   
    56    30    31 1   
    57    30    59 1   
    58    30    60 1   
    59    31    32 1   
    60    31    36 1   
    61    32    33 1   
    62    32    61 1   
    63    32    62 1   
    64    33    34 1   
    65    33    35 1   
    66    33    63 1   
    67    35    36 1   
    68    35    64 1   
    69    35    65 1   
    70    36    66 1   
    71    36    67 1   
@<TRIPOS>SUBSTRUCTURE
     1 SNS         1 TEMP              0 ****  ****    0 ROOT
