@<TRIPOS>MOLECULE
SNS
   67    71     1     0     0
SMALL
No Charge or Current Charge


@<TRIPOS>ATOM
      1 N1          -0.0780     1.1350    -0.4370 nb         1 SNS      -0.684000
      2 C2          -1.2490     1.7580    -0.1710 ca         1 SNS       0.330500
      3 C3          -2.4600     1.1010    -0.4450 ca         1 SNS      -0.177000
      4 C4          -3.7040     1.7080    -0.1880 ca         1 SNS       0.005000
      5 C5          -3.7290     3.0060     0.3640 ca         1 SNS      -0.120000
      6 C6          -2.5280     3.6790     0.6440 ca         1 SNS      -0.068000
      7 C7          -1.2940     3.0600     0.3780 ca         1 SNS      -0.115000
      8 C8          -0.0910     3.7290     0.6560 ca         1 SNS      -0.023000
      9 C9           1.1190     3.0730     0.3760 ca         1 SNS      -0.115000
     10 C10          2.3470     3.7050     0.6400 ca         1 SNS      -0.068000
     11 C11          3.5540     3.0450     0.3580 ca         1 SNS      -0.120000
     12 C12          3.5420     1.7460    -0.1940 ca         1 SNS       0.005000
     13 C13          2.3050     1.1260    -0.4480 ca         1 SNS      -0.177000
     14 C14          1.0860     1.7710    -0.1730 ca         1 SNS       0.330500
     15 N15          4.7200     1.0120    -0.5040 ns         1 SNS      -0.150500
     16 C16          6.0690     1.3410    -0.4540 c          1 SNS       0.610600
     17 O17          6.5000     2.4420    -0.1330 o          1 SNS      -0.578100
     18 C18          7.0080     0.2150    -0.8820 c3         1 SNS      -0.163900
     19 C19          7.7350    -0.3660     0.3430 c3         1 SNS       0.181800
     20 N20          8.5560    -1.5550     0.0270 n3         1 SNS      -0.717600
     21 C21          9.1690    -2.2310     1.2040 c5         1 SNS       0.131800
     22 C22         10.2500    -3.1810     0.5880 c5         1 SNS       0.193300
     23 F23          9.9070    -4.5270     0.7540 f          1 SNS      -0.260500
     24 C24         10.2590    -2.7970    -0.9200 c5         1 SNS      -0.114400
     25 C25          9.6980    -1.3580    -0.8910 c5         1 SNS       0.157300
     26 N26         -4.8750     0.9600    -0.4960 ns         1 SNS      -0.150500
     27 C27         -6.2270     1.2760    -0.4470 c          1 SNS       0.610600
     28 O28         -6.6680     2.3740    -0.1300 o          1 SNS      -0.578100
     29 C29         -7.1540     0.1380    -0.8710 c3         1 SNS      -0.163900
     30 C30         -7.8790    -0.4450     0.3560 c3         1 SNS       0.181800
     31 N31         -8.8660    -1.4920     0.0150 n3         1 SNS      -0.717600
     32 C32         -9.6920    -1.9770     1.1570 c5         1 SNS       0.131800
     33 C33        -10.3540    -3.2920     0.6280 c5         1 SNS       0.193300
     34 F34        -11.7370    -3.1470     0.4750 f          1 SNS      -0.260500
     35 C35         -9.6690    -3.5190    -0.7500 c5         1 SNS      -0.114400
     36 C36         -8.3460    -2.7390    -0.5870 c5         1 SNS       0.157300
     37 H3          -2.4270     0.1000    -0.8660 ha         1 SNS       0.128000
     38 H5          -4.6630     3.5110     0.5880 ha         1 SNS       0.148000
     39 H6          -2.5610     4.6800     1.0690 ha         1 SNS       0.118000
     40 H8          -0.0960     4.7310     1.0790 ha         1 SNS       0.119000
     41 H10          2.3690     4.7070     1.0650 ha         1 SNS       0.118000
     42 H11          4.4830     3.5600     0.5810 ha         1 SNS       0.148000
     43 H13          2.2820     0.1250    -0.8700 ha         1 SNS       0.128000
     44 HN15         4.5390     0.0660    -0.8150 hn         1 SNS       0.153500
     45 H18          6.4420    -0.5910    -1.3640 hc         1 SNS       0.069200
     46 H18A         7.7500     0.6230    -1.5760 hc         1 SNS       0.069200
     47 H19          8.3620     0.4170     0.7920 h1         1 SNS       0.048200
     48 H19A         6.9790    -0.6420     1.0910 h1         1 SNS       0.048200
     49 H21          9.6500    -1.5030     1.8730 h1         1 SNS       0.051700
     50 H21A         8.4230    -2.7820     1.7920 h1         1 SNS       0.051700
     51 H22         11.2270    -3.0140     1.0580 h1         1 SNS       0.060700
     52 H24         11.2600    -2.8490    -1.3600 hc         1 SNS       0.061950
     53 H24A         9.6070    -3.4560    -1.5050 hc         1 SNS       0.061950
     54 H25          9.3910    -1.0220    -1.8910 h1         1 SNS       0.039450
     55 H25A        10.4290    -0.6400    -0.4900 h1         1 SNS       0.039450
     56 HN26        -4.6840     0.0160    -0.8050 hn         1 SNS       0.153500
     57 H29         -7.9090     0.5330    -1.5600 hc         1 SNS       0.069200
     58 H29A        -6.5760    -0.6560    -1.3560 hc         1 SNS       0.069200
     59 H30         -7.1310    -0.8460     1.0550 h1         1 SNS       0.048200
     60 H30A        -8.3920     0.3780     0.8730 h1         1 SNS       0.048200
     61 H32         -9.0650    -2.2000     2.0320 h1         1 SNS       0.051700
     62 H32A       -10.4400    -1.2330     1.4640 h1         1 SNS       0.051700
     63 H33        -10.1700    -4.1250     1.3190 h1         1 SNS       0.060700
     64 H35         -9.5070    -4.5800    -0.9680 hc         1 SNS       0.061950
     65 H35A       -10.2670    -3.1020    -1.5690 hc         1 SNS       0.061950
     66 H36         -7.8520    -2.5730    -1.5540 h1         1 SNS       0.039450
     67 H36A        -7.6430    -3.2560     0.0820 h1         1 SNS       0.039450
@<TRIPOS>BOND
     1     1     2 ar  
     2     1    14 ar  
     3     2     3 ar  
     4     2     7 ar  
     5     3     4 ar  
     6     3    37 1   
     7     4     5 ar  
     8     4    26 1   
     9     5     6 ar  
    10     5    38 1   
    11     6     7 ar  
    12     6    39 1   
    13     7     8 ar  
    14     8     9 ar  
    15     8    40 1   
    16     9    10 ar  
    17     9    14 ar  
    18    10    11 ar  
    19    10    41 1   
    20    11    12 ar  
    21    11    42 1   
    22    12    13 ar  
    23    12    15 1   
    24    13    14 ar  
    25    13    43 1   
    26    15    16 1   
    27    15    44 1   
    28    16    17 2   
    29    16    18 1   
    30    18    19 1   
    31    18    45 1   
    32    18    46 1   
    33    19    20 1   
    34    19    47 1   
    35    19    48 1   
    36    20    21 1   
    37    20    25 1   
    38    21    22 1   
    39    21    49 1   
    40    21    50 1   
    41    22    23 1   
    42    22    24 1   
    43    22    51 1   
    44    24    25 1   
    45    24    52 1   
    46    24    53 1   
    47    25    54 1   
    48    25    55 1   
    49    26    27 1   
    50    26    56 1   
    51    27    28 2   
    52    27    29 1   
    53    29    30 1   
    54    29    57 1   
    55    29    58 1   
    56    30    31 1   
    57    30    59 1   
    58    30    60 1   
    59    31    32 1   
    60    31    36 1   
    61    32    33 1   
    62    32    61 1   
    63    32    62 1   
    64    33    34 1   
    65    33    35 1   
    66    33    63 1   
    67    35    36 1   
    68    35    64 1   
    69    35    65 1   
    70    36    66 1   
    71    36    67 1   
@<TRIPOS>SUBSTRUCTURE
     1 SNS         1 TEMP              0 ****  ****    0 ROOT
