@<TRIPOS>MOLECULE
SNT
   55    58     1     0     0
SMALL
No Charge or Current Charge


@<TRIPOS>ATOM
      1 C4          -5.7230     0.3750    -0.0590 ca         1 SNT       0.016800
      2 C3          -6.2680     1.0170     1.0720 ca         1 SNT      -0.105500
      3 C2          -7.5520     1.5880     1.0140 ca         1 SNT      -0.102000
      4 C1          -8.2990     1.5170    -0.1740 ca         1 SNT      -0.109000
      5 N1          -4.4460    -0.1890    -0.0050 na         1 SNT       0.222000
      6 N2          -0.0270    -1.1920     0.5370 n2         1 SNT      -0.443400
      7 N3           1.3410    -1.0830     0.5900 nh         1 SNT      -0.435700
      8 N4           4.2430    -0.9760    -0.0070 n3         1 SNT      -0.720600
      9 N5          -4.2950    -1.5400    -0.1660 nc         1 SNT      -0.522800
     10 C5          -3.2870     0.5270     0.2680 cc         1 SNT      -0.106300
     11 C6          -2.3210    -0.4500     0.2780 cd         1 SNT      -0.244900
     12 C7          -0.8940    -0.2190     0.5270 cf         1 SNT       0.420800
     13 C8           2.2040    -2.2920     0.7400 c6         1 SNT       0.180300
     14 C9           3.4600    -2.2360    -0.1800 c6         1 SNT       0.160800
     15 C10          5.4760    -0.9610    -0.8290 c3         1 SNT       0.215100
     16 C11          6.3740     0.2430    -0.5540 ca         1 SNT      -0.088300
     17 C12          6.5530     1.2410    -1.5330 ca         1 SNT      -0.099500
     18 C13          7.3800     2.3480    -1.2730 ca         1 SNT      -0.114500
     19 C14          8.0330     2.4650    -0.0350 ca         1 SNT      -0.109000
     20 C15         -7.7640     0.8750    -1.3040 ca         1 SNT      -0.102000
     21 C16         -6.4800     0.3040    -1.2460 ca         1 SNT      -0.105500
     22 C17         -2.9930    -1.6800     0.0040 cd         1 SNT       0.300300
     23 C18         -2.3890    -3.0560    -0.0980 c3         1 SNT      -0.116400
     24 C19          3.3610     0.2080    -0.2470 c6         1 SNT       0.160800
     25 C20          2.0920     0.2150     0.6600 c6         1 SNT       0.180300
     26 C21          7.8580     1.4730     0.9450 ca         1 SNT      -0.114500
     27 C22          7.0310     0.3660     0.6860 ca         1 SNT      -0.099500
     28 C23         -3.1800     2.0190     0.4770 c3         1 SNT      -0.033800
     29 H1          -5.6970     1.0720     1.9960 ha         1 SNT       0.130500
     30 H2          -7.9670     2.0830     1.8890 ha         1 SNT       0.118000
     31 H3          -9.2930     1.9580    -0.2190 ha         1 SNT       0.117000
     32 H5          -0.6080     0.8150     0.7440 h4         1 SNT      -0.019200
     33 H6           2.5340    -2.3770     1.7860 h1         1 SNT       0.046950
     34 H7           1.6320    -3.2020     0.5070 h1         1 SNT       0.046950
     35 H8           3.1310    -2.3350    -1.2250 h1         1 SNT       0.042700
     36 H9           4.0900    -3.1100     0.0400 h1         1 SNT       0.042700
     37 H10          6.0630    -1.8690    -0.6310 h1         1 SNT       0.039700
     38 H11          5.2160    -0.9810    -1.8970 h1         1 SNT       0.039700
     39 H12          6.0500     1.1610    -2.4940 ha         1 SNT       0.117500
     40 H13          7.5140     3.1160    -2.0330 ha         1 SNT       0.111000
     41 H14          8.6730     3.3220     0.1660 ha         1 SNT       0.111000
     42 H15         -8.3440     0.8180    -2.2230 ha         1 SNT       0.118000
     43 H16         -6.0710    -0.1920    -2.1240 ha         1 SNT       0.130500
     44 H17         -1.6330    -3.0920    -0.8910 hc         1 SNT       0.052033
     45 H18         -1.9080    -3.3420     0.8440 hc         1 SNT       0.052033
     46 H19         -3.1450    -3.8160    -0.3280 hc         1 SNT       0.052033
     47 H20          3.9110     1.1430    -0.0700 h1         1 SNT       0.042700
     48 H21          3.0360     0.2250    -1.2980 h1         1 SNT       0.042700
     49 H22          1.4640     1.0620     0.3530 h1         1 SNT       0.046950
     50 H23          2.4010     0.4010     1.6980 h1         1 SNT       0.046950
     51 H24          8.3620     1.5620     1.9050 ha         1 SNT       0.111000
     52 H25          6.8960    -0.3970     1.4500 ha         1 SNT       0.117500
     53 H26         -3.2280     2.2670     1.5430 hc         1 SNT       0.053033
     54 H27         -2.2340     2.4070     0.0820 hc         1 SNT       0.053033
     55 H28         -3.9890     2.5550    -0.0330 hc         1 SNT       0.053033
@<TRIPOS>BOND
     1     1     2 ar  
     2     1     5 1   
     3     1    21 ar  
     4     2     3 ar  
     5     2    29 1   
     6     3     4 ar  
     7     3    30 1   
     8     4    20 ar  
     9     4    31 1   
    10     5     9 1   
    11     5    10 1   
    12     6     7 1   
    13     6    12 2   
    14     7    13 1   
    15     7    25 1   
    16     8    14 1   
    17     8    15 1   
    18     8    24 1   
    19     9    22 2   
    20    10    11 2   
    21    10    28 1   
    22    11    12 1   
    23    11    22 1   
    24    12    32 1   
    25    13    14 1   
    26    13    33 1   
    27    13    34 1   
    28    14    35 1   
    29    14    36 1   
    30    15    16 1   
    31    15    37 1   
    32    15    38 1   
    33    16    17 ar  
    34    16    27 ar  
    35    17    18 ar  
    36    17    39 1   
    37    18    19 ar  
    38    18    40 1   
    39    19    26 ar  
    40    19    41 1   
    41    20    21 ar  
    42    20    42 1   
    43    21    43 1   
    44    22    23 1   
    45    23    44 1   
    46    23    45 1   
    47    23    46 1   
    48    24    25 1   
    49    24    47 1   
    50    24    48 1   
    51    25    49 1   
    52    25    50 1   
    53    26    27 ar  
    54    26    51 1   
    55    27    52 1   
    56    28    53 1   
    57    28    54 1   
    58    28    55 1   
@<TRIPOS>SUBSTRUCTURE
     1 SNT         1 TEMP              0 ****  ****    0 ROOT
