@<TRIPOS>MOLECULE
SNT
   55    58     1     0     0
SMALL
abcg2


@<TRIPOS>ATOM
      1 C4          -5.6130     0.4210     0.3880 ca         1 SNT       0.016800
      2 C3          -5.8180     1.5560     1.1640 ca         1 SNT      -0.105500
      3 C2          -7.0930     2.0920     1.2730 ca         1 SNT      -0.102000
      4 C1          -8.1660     1.4890     0.6330 ca         1 SNT      -0.109000
      5 N1          -4.3240    -0.1340     0.2550 na         1 SNT       0.222000
      6 N2           0.0140    -1.2760    -0.4370 n2         1 SNT      -0.443400
      7 N3           1.3260    -1.1210    -0.7080 nh         1 SNT      -0.435700
      8 N4           4.1360    -0.9130    -0.3670 n3         1 SNT      -0.720600
      9 N5          -4.1760    -1.4650     0.3400 nc         1 SNT      -0.522800
     10 C5          -3.1540     0.5000    -0.0040 cc         1 SNT      -0.106300
     11 C6          -2.1920    -0.4920    -0.0740 cd         1 SNT      -0.244900
     12 C7          -0.7790    -0.2820    -0.3170 cf         1 SNT       0.420800
     13 C8           2.0990    -2.2220    -0.1620 c6         1 SNT       0.180300
     14 C9           3.5230    -2.1880    -0.6750 c6         1 SNT       0.160800
     15 C10          5.5400    -0.8820    -0.7190 c3         1 SNT       0.215100
     16 C11          6.2600     0.3040    -0.1290 ca         1 SNT      -0.088300
     17 C12          7.2100     0.9960    -0.8720 ca         1 SNT      -0.099500
     18 C13          7.9100     2.0620    -0.3190 ca         1 SNT      -0.114500
     19 C14          7.6600     2.4550     0.9880 ca         1 SNT      -0.109000
     20 C15         -7.9580     0.3420    -0.1240 ca         1 SNT      -0.102000
     21 C16         -6.6850    -0.1920    -0.2540 ca         1 SNT      -0.105500
     22 C17         -2.8980    -1.7040     0.1490 cd         1 SNT       0.300300
     23 C18         -2.3700    -3.0940     0.1910 c3         1 SNT      -0.116400
     24 C19          3.3900     0.1490    -1.0090 c6         1 SNT       0.160800
     25 C20          1.9490     0.1770    -0.5360 c6         1 SNT       0.180300
     26 C21          6.7070     1.7730     1.7360 ca         1 SNT      -0.114500
     27 C22          6.0140     0.7060     1.1830 ca         1 SNT      -0.099500
     28 C23         -3.0200     1.9670    -0.2080 c3         1 SNT      -0.033800
     29 H1          -4.9950     2.0130     1.6970 ha         1 SNT       0.130500
     30 H2          -7.2450     2.9780     1.8750 ha         1 SNT       0.118000
     31 H3          -9.1600     1.9060     0.7260 ha         1 SNT       0.117000
     32 H5          -0.4580     0.7560    -0.3920 h4         1 SNT      -0.019200
     33 H6           2.1070    -2.1900     0.9360 h1         1 SNT       0.046950
     34 H7           1.6220    -3.1560    -0.4610 h1         1 SNT       0.046950
     35 H8           3.5300    -2.3950    -1.7590 h1         1 SNT       0.042700
     36 H9           4.0860    -2.9880    -0.1900 h1         1 SNT       0.042700
     37 H10          5.9980    -1.7990    -0.3340 h1         1 SNT       0.039700
     38 H11          5.6960    -0.8970    -1.8100 h1         1 SNT       0.039700
     39 H12          7.4040     0.7020    -1.8980 ha         1 SNT       0.117500
     40 H13          8.6450     2.5890    -0.9150 ha         1 SNT       0.111000
     41 H14          8.1980     3.2880     1.4210 ha         1 SNT       0.111000
     42 H15         -8.7880    -0.1360    -0.6260 ha         1 SNT       0.118000
     43 H16         -6.5210    -1.0770    -0.8540 ha         1 SNT       0.130500
     44 H17         -1.9260    -3.3770    -0.7630 hc         1 SNT       0.052033
     45 H18         -1.5850    -3.1970     0.9390 hc         1 SNT       0.052033
     46 H19         -3.1690    -3.7950     0.4240 hc         1 SNT       0.052033
     47 H20          3.8400     1.1140    -0.7690 h1         1 SNT       0.042700
     48 H21          3.4120     0.0450    -2.1080 h1         1 SNT       0.042700
     49 H22          1.4210     0.9220    -1.1340 h1         1 SNT       0.046950
     50 H23          1.9000     0.5010     0.5150 h1         1 SNT       0.046950
     51 H24          6.5030     2.0740     2.7560 ha         1 SNT       0.111000
     52 H25          5.2660     0.1850     1.7670 ha         1 SNT       0.117500
     53 H26         -2.8650     2.4990     0.7320 hc         1 SNT       0.053033
     54 H27         -2.1640     2.1800    -0.8450 hc         1 SNT       0.053033
     55 H28         -3.9000     2.3930    -0.6880 hc         1 SNT       0.053033
@<TRIPOS>BOND
     1     1     2 ar  
     2     1     5 1   
     3     1    21 ar  
     4     2     3 ar  
     5     2    29 1   
     6     3     4 ar  
     7     3    30 1   
     8     4    20 ar  
     9     4    31 1   
    10     5     9 1   
    11     5    10 1   
    12     6     7 1   
    13     6    12 2   
    14     7    13 1   
    15     7    25 1   
    16     8    14 1   
    17     8    15 1   
    18     8    24 1   
    19     9    22 2   
    20    10    11 2   
    21    10    28 1   
    22    11    12 1   
    23    11    22 1   
    24    12    32 1   
    25    13    14 1   
    26    13    33 1   
    27    13    34 1   
    28    14    35 1   
    29    14    36 1   
    30    15    16 1   
    31    15    37 1   
    32    15    38 1   
    33    16    17 ar  
    34    16    27 ar  
    35    17    18 ar  
    36    17    39 1   
    37    18    19 ar  
    38    18    40 1   
    39    19    26 ar  
    40    19    41 1   
    41    20    21 ar  
    42    20    42 1   
    43    21    43 1   
    44    22    23 1   
    45    23    44 1   
    46    23    45 1   
    47    23    46 1   
    48    24    25 1   
    49    24    47 1   
    50    24    48 1   
    51    25    49 1   
    52    25    50 1   
    53    26    27 ar  
    54    26    51 1   
    55    27    52 1   
    56    28    53 1   
    57    28    54 1   
    58    28    55 1   
@<TRIPOS>SUBSTRUCTURE
     1 SNT         1 TEMP              0 ****  ****    0 ROOT
