@<TRIPOS>MOLECULE
SNU
   22    23     1     0     0
SMALL
abcg2


@<TRIPOS>ATOM
      1 CAF         -0.6640     1.1210    -0.3510 ca         1 SNU      -0.077000
      2 CAD         -2.0480     1.1310    -0.3490 ca         1 SNU      -0.165500
      3 CAJ         -2.7780    -0.0210    -0.0330 ca         1 SNU       0.288000
      4 NAA         -4.1550    -0.0290    -0.0950 nv         1 SNU      -1.069000
      5 CAE         -2.0610    -1.1780     0.2950 ca         1 SNU      -0.165500
      6 CAG         -0.6780    -1.1790     0.3140 ca         1 SNU      -0.077000
      7 CAK          0.0360    -0.0320    -0.0150 ca         1 SNU      -0.043200
      8 NAL          1.4480    -0.0380    -0.0050 na         1 SNU       0.125200
      9 CAH          2.2410    -1.0540    -0.4630 cc         1 SNU      -0.192500
     10 CAB          3.5500    -0.6920    -0.2870 cd         1 SNU      -0.180000
     11 CAC          3.5510     0.6000     0.3020 cd         1 SNU      -0.180000
     12 CAI          2.2430     0.9720     0.4620 cc         1 SNU      -0.192500
     13 HAF         -0.1320     2.0220    -0.6280 ha         1 SNU       0.124000
     14 HAD         -2.5710     2.0420    -0.6150 ha         1 SNU       0.116500
     15 HNAA        -4.6030     0.8640     0.0390 hn         1 SNU       0.449500
     16 HNAB        -4.6110    -0.7560     0.4330 hn         1 SNU       0.449500
     17 HAE         -2.5940    -2.0840     0.5570 ha         1 SNU       0.116500
     18 HAG         -0.1560    -2.0830     0.6030 ha         1 SNU       0.124000
     19 HAH          1.8120    -1.9410    -0.9000 h4         1 SNU       0.144000
     20 HAB          4.4100    -1.2840    -0.5560 ha         1 SNU       0.131000
     21 HAC          4.4130     1.1860     0.5820 ha         1 SNU       0.131000
     22 HAI          1.8150     1.8620     0.8940 h4         1 SNU       0.144000
@<TRIPOS>BOND
     1     1     2 ar  
     2     1     7 ar  
     3     1    13 1   
     4     2     3 ar  
     5     2    14 1   
     6     3     4 1   
     7     3     5 ar  
     8     4    15 1   
     9     4    16 1   
    10     5     6 ar  
    11     5    17 1   
    12     6     7 ar  
    13     6    18 1   
    14     7     8 1   
    15     8     9 1   
    16     8    12 1   
    17     9    10 2   
    18     9    19 1   
    19    10    11 1   
    20    10    20 1   
    21    11    12 2   
    22    11    21 1   
    23    12    22 1   
@<TRIPOS>SUBSTRUCTURE
     1 SNU         1 TEMP              0 ****  ****    0 ROOT
