@<TRIPOS>MOLECULE
SNU
   22    23     1     0     0
SMALL
No Charge or Current Charge


@<TRIPOS>ATOM
      1 CAF         -0.6470     1.1500    -0.3120 ca         1 SNU      -0.077000
      2 CAD         -2.0540     1.1540    -0.3120 ca         1 SNU      -0.165500
      3 CAJ         -2.7640    -0.0150    -0.0040 ca         1 SNU       0.288000
      4 NAA         -4.1320    -0.0080    -0.0030 nv         1 SNU      -1.069000
      5 CAE         -2.0660    -1.1920     0.3040 ca         1 SNU      -0.165500
      6 CAG         -0.6590    -1.2030     0.3040 ca         1 SNU      -0.077000
      7 CAK          0.0640    -0.0300    -0.0040 ca         1 SNU      -0.043200
      8 NAL          1.4640    -0.0370    -0.0040 na         1 SNU       0.125200
      9 CAH          2.2290    -1.1100    -0.4560 cc         1 SNU      -0.192500
     10 CAB          3.5250    -0.6990    -0.2800 cd         1 SNU      -0.180000
     11 CAC          3.5320     0.6040     0.2720 cd         1 SNU      -0.180000
     12 CAI          2.2400     1.0280     0.4480 cc         1 SNU      -0.192500
     13 HAF         -0.1140     2.0640    -0.5640 ha         1 SNU       0.124000
     14 HAD         -2.5880     2.0680    -0.5540 ha         1 SNU       0.116500
     15 HNAA        -4.6350     0.8730    -0.0880 hn         1 SNU       0.449500
     16 HNAB        -4.6460    -0.8120     0.3530 hn         1 SNU       0.449500
     17 HAE         -2.6100    -2.1010     0.5450 ha         1 SNU       0.116500
     18 HAG         -0.1350    -2.1230     0.5550 ha         1 SNU       0.124000
     19 HAH          1.8090    -2.0250    -0.8540 h4         1 SNU       0.144000
     20 HAB          4.4070    -1.2840    -0.5280 ha         1 SNU       0.131000
     21 HAC          4.4190     1.1800     0.5200 ha         1 SNU       0.131000
     22 HAI          1.8290     1.9470     0.8460 h4         1 SNU       0.144000
@<TRIPOS>BOND
     1     1     2 ar  
     2     1     7 ar  
     3     1    13 1   
     4     2     3 ar  
     5     2    14 1   
     6     3     4 1   
     7     3     5 ar  
     8     4    15 1   
     9     4    16 1   
    10     5     6 ar  
    11     5    17 1   
    12     6     7 ar  
    13     6    18 1   
    14     7     8 1   
    15     8     9 1   
    16     8    12 1   
    17     9    10 2   
    18     9    19 1   
    19    10    11 1   
    20    10    20 1   
    21    11    12 2   
    22    11    21 1   
    23    12    22 1   
@<TRIPOS>SUBSTRUCTURE
     1 SNU         1 TEMP              0 ****  ****    0 ROOT
