@<TRIPOS>MOLECULE
SNV
   35    36     1     0     0
SMALL
abcg2


@<TRIPOS>ATOM
      1 N1          46.0360   128.4990    27.1550 nh         1 SNV      -0.779400
      2 C4          45.4370   127.5430    26.2960 ca         1 SNV       0.166000
      3 C5          45.4910   127.7970    24.9100 ca         1 SNV       0.310000
      4 C6          44.9660   126.8440    24.0330 ca         1 SNV      -0.180000
      5 C7          44.3730   125.6850    24.5100 ca         1 SNV      -0.075000
      6 C8          44.2870   125.4510    25.8750 ca         1 SNV      -0.151000
      7 C10         47.4640   128.2850    27.3470 c6         1 SNV       0.181300
      8 N           47.4260   129.7320    29.3160 n3         1 SNV      -0.703600
      9 C           49.4000   130.5730    30.5840 c3         1 SNV       0.165600
     10 O           49.3440   129.5000    31.4960 oh         1 SNV      -0.641000
     11 C1          48.0140   130.8440    30.0360 c3         1 SNV       0.168800
     12 C11         48.0840   129.4770    28.0490 c6         1 SNV       0.163300
     13 C2          46.0050   129.9370    29.1050 c6         1 SNV       0.163300
     14 C3          45.3810   128.7310    28.4280 c6         1 SNV       0.181300
     15 C9          44.8310   126.3810    26.7550 ca         1 SNV      -0.098000
     16 N2          46.0010   128.9860    24.4390 nv         1 SNV      -1.079000
     17 H1          45.0080   127.0290    22.9650 ha         1 SNV       0.111000
     18 H2          43.9690   124.9670    23.8080 ha         1 SNV       0.109000
     19 H3          43.8160   124.5540    26.2540 ha         1 SNV       0.113000
     20 H4          47.6570   127.3710    27.9300 h1         1 SNV       0.042450
     21 H5          47.9470   128.1530    26.3770 h1         1 SNV       0.042450
     22 H7          50.1070   130.3710    29.7680 h1         1 SNV       0.014200
     23 H8          49.7440   131.4990    31.0630 h1         1 SNV       0.014200
     24 H9          50.2160   129.4010    31.8880 ho         1 SNV       0.435000
     25 H10         48.0710   131.7530    29.4110 h1         1 SNV       0.037200
     26 H11         47.3570   131.0920    30.8760 h1         1 SNV       0.037200
     27 H12         49.1420   129.2660    28.2150 h1         1 SNV       0.035200
     28 H13         48.0300   130.3570    27.3840 h1         1 SNV       0.035200
     29 H14         45.8040   130.8350    28.4950 h1         1 SNV       0.035200
     30 H15         45.5210   130.0920    30.0720 h1         1 SNV       0.035200
     31 H16         44.3190   128.9200    28.2570 h1         1 SNV       0.042450
     32 H17         45.4600   127.8680    29.1050 h1         1 SNV       0.042450
     33 H18         44.7840   126.1910    27.8200 ha         1 SNV       0.111000
     34 H19         46.5040   129.5400    25.1120 hn         1 SNV       0.458500
     35 H20         46.4360   128.9640    23.5310 hn         1 SNV       0.458500
@<TRIPOS>BOND
     1     1     2 1   
     2     1     7 1   
     3     1    14 1   
     4     2     3 ar  
     5     2    15 ar  
     6     3     4 ar  
     7     3    16 1   
     8     4     5 ar  
     9     4    17 1   
    10     5     6 ar  
    11     5    18 1   
    12     6    15 ar  
    13     6    19 1   
    14     7    12 1   
    15     7    20 1   
    16     7    21 1   
    17     8    11 1   
    18     8    12 1   
    19     8    13 1   
    20     9    10 1   
    21     9    11 1   
    22     9    22 1   
    23     9    23 1   
    24    10    24 1   
    25    11    25 1   
    26    11    26 1   
    27    12    27 1   
    28    12    28 1   
    29    13    14 1   
    30    13    29 1   
    31    13    30 1   
    32    14    31 1   
    33    14    32 1   
    34    15    33 1   
    35    16    34 1   
    36    16    35 1   
@<TRIPOS>SUBSTRUCTURE
     1 SNV         1 TEMP              0 ****  ****    0 ROOT
