@<TRIPOS>MOLECULE
SNV
   35    36     1     0     0
SMALL
No Charge or Current Charge


@<TRIPOS>ATOM
      1 N1          46.0590   128.2910    27.2100 nh         1 SNV      -0.779400
      2 C4          45.4300   127.4510    26.2400 ca         1 SNV       0.166000
      3 C5          45.5040   127.7320    24.8370 ca         1 SNV       0.310000
      4 C6          44.8940   126.8660    23.9130 ca         1 SNV      -0.180000
      5 C7          44.2040   125.7260    24.3540 ca         1 SNV      -0.075000
      6 C8          44.1220   125.4440    25.7260 ca         1 SNV      -0.151000
      7 C10         47.5340   128.1760    27.4280 c6         1 SNV       0.181300
      8 N           47.4250   129.7450    29.4410 n3         1 SNV      -0.703600
      9 C           49.4810   130.7900    30.6400 c3         1 SNV       0.165600
     10 O           49.6520   129.7180    31.5840 oh         1 SNV      -0.641000
     11 C1          48.0000   130.9160    30.1660 c3         1 SNV       0.168800
     12 C11         48.1360   129.4210    28.1630 c6         1 SNV       0.163300
     13 C2          45.9630   129.9090    29.1720 c6         1 SNV       0.163300
     14 C3          45.3300   128.6670    28.4630 c6         1 SNV       0.181300
     15 C9          44.7310   126.2990    26.6620 ca         1 SNV      -0.098000
     16 N2          46.1560   128.8500    24.3550 nv         1 SNV      -1.079000
     17 H1          44.9490   127.0790    22.8490 ha         1 SNV       0.111000
     18 H2          43.7330   125.0610    23.6330 ha         1 SNV       0.109000
     19 H3          43.5890   124.5590    26.0670 ha         1 SNV       0.113000
     20 H4          47.7480   127.2790    28.0270 h1         1 SNV       0.042450
     21 H5          48.0540   128.0540    26.4660 h1         1 SNV       0.042450
     22 H7          50.1350   130.6420    29.7710 h1         1 SNV       0.014200
     23 H8          49.7750   131.7400    31.1050 h1         1 SNV       0.014200
     24 H9          50.6100   129.6760    31.7950 ho         1 SNV       0.435000
     25 H10         47.9310   131.8080    29.5270 h1         1 SNV       0.037200
     26 H11         47.3900   131.1260    31.0560 h1         1 SNV       0.037200
     27 H12         49.1990   129.2180    28.3520 h1         1 SNV       0.035200
     28 H13         48.0910   130.2830    27.4800 h1         1 SNV       0.035200
     29 H14         45.7950   130.7930    28.5390 h1         1 SNV       0.035200
     30 H15         45.4220   130.0840    30.1130 h1         1 SNV       0.035200
     31 H16         44.2780   128.8930    28.2360 h1         1 SNV       0.042450
     32 H17         45.3390   127.8230    29.1680 h1         1 SNV       0.042450
     33 H18         44.6680   126.0570    27.7190 ha         1 SNV       0.111000
     34 H19         46.6740   129.4070    25.0310 hn         1 SNV       0.458500
     35 H20         46.4280   128.9040    23.3770 hn         1 SNV       0.458500
@<TRIPOS>BOND
     1     1     2 1   
     2     1     7 1   
     3     1    14 1   
     4     2     3 ar  
     5     2    15 ar  
     6     3     4 ar  
     7     3    16 1   
     8     4     5 ar  
     9     4    17 1   
    10     5     6 ar  
    11     5    18 1   
    12     6    15 ar  
    13     6    19 1   
    14     7    12 1   
    15     7    20 1   
    16     7    21 1   
    17     8    11 1   
    18     8    12 1   
    19     8    13 1   
    20     9    10 1   
    21     9    11 1   
    22     9    22 1   
    23     9    23 1   
    24    10    24 1   
    25    11    25 1   
    26    11    26 1   
    27    12    27 1   
    28    12    28 1   
    29    13    14 1   
    30    13    29 1   
    31    13    30 1   
    32    14    31 1   
    33    14    32 1   
    34    15    33 1   
    35    16    34 1   
    36    16    35 1   
@<TRIPOS>SUBSTRUCTURE
     1 SNV         1 TEMP              0 ****  ****    0 ROOT
