@<TRIPOS>MOLECULE
SNW
   40    40     1     0     0
SMALL
abcg2


@<TRIPOS>ATOM
      1 OAB         -2.7760    -1.7650    -1.1110 oh         1 SNW      -0.695000
      2 CAF         -2.8550    -0.4190    -0.7090 c6         1 SNW       0.149300
      3 CAG         -4.1200    -0.1530     0.1020 c6         1 SNW       0.141300
      4 OAC         -5.2220    -0.4600    -0.7210 oh         1 SNW      -0.723000
      5 CAH         -4.1350     1.2860     0.6070 c6         1 SNW       0.104300
      6 OAI         -4.3030     2.1430    -0.4990 oh         1 SNW      -0.703000
      7 CAO         -2.8300     1.5420     1.3490 c6         1 SNW       0.139600
      8 OAN         -1.7070     1.2640     0.5440 os         1 SNW      -0.471000
      9 CAM         -1.6030    -0.0870     0.1220 c6         1 SNW       0.424000
     10 OAQ         -1.5220    -0.9410     1.1990 oh         1 SNW      -0.793000
     11 CAL         -0.3380    -0.1480    -0.7400 c3         1 SNW       0.174800
     12 N            0.8390     0.1750     0.0400 n7         1 SNW      -0.879400
     13 CA           1.9720    -0.7120    -0.0960 c3         1 SNW       0.052500
     14 C            1.7960    -2.0170     0.7170 c          1 SNW       0.728000
     15 O            0.7590    -2.1590     1.4120 o          1 SNW      -0.709000
     16 CB           3.2600    -0.0050     0.3360 c3         1 SNW      -0.062400
     17 CG           3.6760     1.1060    -0.6170 c3         1 SNW      -0.159400
     18 CD           5.0170     1.7280    -0.2750 c          1 SNW       0.599100
     19 OE1          5.8280     1.1890     0.4640 o          1 SNW      -0.603100
     20 NE2          5.2470     2.9140    -0.8620 nt         1 SNW      -0.625000
     21 OXT          2.7090    -2.8510     0.6200 o          1 SNW      -0.709000
     22 H1          -3.5540    -1.9540    -1.6440 ho         1 SNW       0.497000
     23 H2          -2.8570     0.2480    -1.5850 h1         1 SNW       0.045700
     24 H3          -4.1030    -0.8050     0.9860 h1         1 SNW       0.066700
     25 H4          -6.0020    -0.5610    -0.1670 ho         1 SNW       0.492000
     26 H5          -4.9590     1.4050     1.3270 h1         1 SNW       0.013700
     27 H6          -4.2980     3.0500    -0.1800 ho         1 SNW       0.488000
     28 H7          -2.7590     2.5940     1.6380 h1         1 SNW       0.044200
     29 H8          -2.8220     0.9560     2.2750 h1         1 SNW       0.044200
     30 H9          -0.5880    -1.2860     1.2940 ho         1 SNW       0.619000
     31 H10         -0.2520    -1.1560    -1.1500 h1         1 SNW       0.037700
     32 H11         -0.4560     0.5210    -1.6010 h1         1 SNW       0.037700
     33 H12          1.1010     1.1350    -0.1170 hn         1 SNW       0.399000
     34 H14          2.1220    -1.0310    -1.1430 h1         1 SNW       0.004700
     35 H15          3.1310     0.3920     1.3480 hc         1 SNW       0.072200
     36 H16          3.7520     0.7050    -1.6340 hc         1 SNW       0.043700
     37 H17          4.5900     3.3220    -1.5040 hn         1 SNW       0.300000
     38 H18          6.1430     3.3640    -0.7690 hn         1 SNW       0.300000
     39 H13          4.0550    -0.7470     0.3860 hc         1 SNW       0.072200
     40 H20          2.9290     1.9020    -0.6720 hc         1 SNW       0.043700
@<TRIPOS>BOND
     1     1     2 1   
     2     1    22 1   
     3     2     3 1   
     4     2     9 1   
     5     2    23 1   
     6     3     4 1   
     7     3     5 1   
     8     3    24 1   
     9     4    25 1   
    10     5     6 1   
    11     5     7 1   
    12     5    26 1   
    13     6    27 1   
    14     7     8 1   
    15     7    28 1   
    16     7    29 1   
    17     8     9 1   
    18     9    10 1   
    19     9    11 1   
    20    10    30 1   
    21    11    12 1   
    22    11    31 1   
    23    11    32 1   
    24    12    13 1   
    25    12    33 1   
    26    13    14 1   
    27    13    16 1   
    28    13    34 1   
    29    14    15 1   
    30    14    21 1   
    31    16    17 1   
    32    16    35 1   
    33    16    39 1   
    34    17    18 1   
    35    17    36 1   
    36    17    40 1   
    37    18    19 2   
    38    18    20 1   
    39    20    37 1   
    40    20    38 1   
@<TRIPOS>SUBSTRUCTURE
     1 SNW         1 TEMP              0 ****  ****    0 ROOT
