@<TRIPOS>MOLECULE
SNW
   40    40     1     0     0
SMALL
No Charge or Current Charge


@<TRIPOS>ATOM
      1 OAB         -2.7800    -2.0100    -0.8290 oh         1 SNW      -0.695000
      2 CAF         -2.9150    -0.6000    -0.5280 c6         1 SNW       0.149300
      3 CAG         -4.1760    -0.3740     0.3660 c6         1 SNW       0.141300
      4 OAC         -5.3560    -0.8500    -0.3070 oh         1 SNW      -0.723000
      5 CAH         -4.3500     1.1380     0.6950 c6         1 SNW       0.104300
      6 OAI         -4.7120     1.8540    -0.5080 oh         1 SNW      -0.703000
      7 CAO         -3.0270     1.6750     1.3220 c6         1 SNW       0.139600
      8 OAN         -1.8960     1.4340     0.4460 os         1 SNW      -0.471000
      9 CAM         -1.6370     0.0390     0.1490 c6         1 SNW       0.424000
     10 OAQ         -1.2890    -0.6000     1.3880 oh         1 SNW      -0.793000
     11 CAL         -0.3980    -0.0060    -0.8350 c3         1 SNW       0.174800
     12 N            0.9130     0.3550    -0.2120 n7         1 SNW      -0.879400
     13 CA           2.0190    -0.6540    -0.3520 c3         1 SNW       0.052500
     14 C            1.7170    -2.0650     0.2990 c          1 SNW       0.728000
     15 O            0.8210    -2.1330     1.1350 o          1 SNW      -0.709000
     16 CB           3.3270    -0.0620     0.2330 c3         1 SNW      -0.062400
     17 CG           3.8510     1.1940    -0.5160 c3         1 SNW      -0.159400
     18 CD           5.1900     1.7500    -0.0130 c          1 SNW       0.599100
     19 OE1          5.8290     1.2710     0.9080 o          1 SNW      -0.603100
     20 NE2          5.6490     2.8400    -0.6650 nt         1 SNW      -0.625000
     21 OXT          2.3080    -3.0460    -0.1330 o          1 SNW      -0.709000
     22 H1          -3.7090    -2.3400    -0.8800 ho         1 SNW       0.497000
     23 H2          -3.0770    -0.0560    -1.4700 h1         1 SNW       0.045700
     24 H3          -4.0330    -0.9190     1.3120 h1         1 SNW       0.066700
     25 H4          -5.6900    -0.0450    -0.7750 ho         1 SNW       0.492000
     26 H5          -5.1510     1.2470     1.4410 h1         1 SNW       0.013700
     27 H6          -4.6440     2.8150    -0.3050 ho         1 SNW       0.488000
     28 H7          -3.1110     2.7560     1.5010 h1         1 SNW       0.044200
     29 H8          -2.8520     1.1980     2.2970 h1         1 SNW       0.044200
     30 H9          -0.4060    -1.0460     1.1880 ho         1 SNW       0.619000
     31 H10         -0.3470    -1.0180    -1.2600 h1         1 SNW       0.037700
     32 H11         -0.6080     0.6660    -1.6780 h1         1 SNW       0.037700
     33 H12          1.2200     1.2520    -0.6030 hn         1 SNW       0.399000
     34 H14          2.1910    -0.8350    -1.4220 h1         1 SNW       0.004700
     35 H15          3.1750     0.1760     1.2930 hc         1 SNW       0.072200
     36 H16          3.9460     1.0150    -1.5930 hc         1 SNW       0.043700
     37 H17          5.1170     3.2330    -1.4270 hn         1 SNW       0.300000
     38 H18          6.5260     3.2520    -0.3820 hn         1 SNW       0.300000
     39 H13          4.1040    -0.8360     0.1950 hc         1 SNW       0.072200
     40 H20          3.1270     2.0180    -0.5060 hc         1 SNW       0.043700
@<TRIPOS>BOND
     1     1     2 1   
     2     1    22 1   
     3     2     3 1   
     4     2     9 1   
     5     2    23 1   
     6     3     4 1   
     7     3     5 1   
     8     3    24 1   
     9     4    25 1   
    10     5     6 1   
    11     5     7 1   
    12     5    26 1   
    13     6    27 1   
    14     7     8 1   
    15     7    28 1   
    16     7    29 1   
    17     8     9 1   
    18     9    10 1   
    19     9    11 1   
    20    10    30 1   
    21    11    12 1   
    22    11    31 1   
    23    11    32 1   
    24    12    13 1   
    25    12    33 1   
    26    13    14 1   
    27    13    16 1   
    28    13    34 1   
    29    14    15 1   
    30    14    21 1   
    31    16    17 1   
    32    16    35 1   
    33    16    39 1   
    34    17    18 1   
    35    17    36 1   
    36    17    40 1   
    37    18    19 2   
    38    18    20 1   
    39    20    37 1   
    40    20    38 1   
@<TRIPOS>SUBSTRUCTURE
     1 SNW         1 TEMP              0 ****  ****    0 ROOT
