@<TRIPOS>MOLECULE
SNX
   51    54     1     0     0
SMALL
No Charge or Current Charge


@<TRIPOS>ATOM
      1 O23         -4.8630     1.1210     0.7360 o          1 SNX      -0.631100
      2 C21         -3.9000     1.8390     0.9490 c          1 SNX       0.629700
      3 N22         -4.1340     3.1010     1.3630 nt         1 SNX      -0.599000
      4 C18         -2.4620     1.3930     0.7880 ca         1 SNX      -0.247600
      5 C17         -1.4020     2.2670     1.1400 ca         1 SNX      -0.027000
      6 C16         -0.0650     1.8680     1.0040 ca         1 SNX      -0.193000
      7 C19         -2.1330     0.1080     0.2910 ca         1 SNX       0.403000
      8 N24         -3.1230    -0.7950    -0.0780 nu         1 SNX      -0.951200
      9 C25         -3.0600    -1.7570    -1.1970 c3         1 SNX       0.219800
     10 C26         -4.4070    -2.5030    -1.3900 c3         1 SNX       0.143600
     11 O27         -5.4600    -1.5320    -1.5760 os         1 SNX      -0.453000
     12 C28         -6.7690    -2.0980    -1.7520 c3         1 SNX       0.146900
     13 C20         -0.7900    -0.2800     0.1660 ca         1 SNX      -0.223000
     14 C15          0.2490     0.5920     0.5180 ca         1 SNX       0.070800
     15 N7           1.5780     0.1930     0.3840 na         1 SNX       0.007500
     16 C1           2.1770    -0.8610     1.0580 ca         1 SNX      -0.051200
     17 C6           1.6440    -1.7470     2.0070 ca         1 SNX      -0.118000
     18 C5           2.5010    -2.7370     2.5350 ca         1 SNX      -0.102000
     19 C4           3.8520    -2.8170     2.1140 ca         1 SNX      -0.131000
     20 C3           4.3620    -1.9090     1.1610 ca         1 SNX      -0.059000
     21 C8           2.4810     0.8390    -0.4760 cc         1 SNX       0.015700
     22 C13          2.2570     1.9760    -1.4410 c6         1 SNX      -0.030200
     23 C12          3.3300     1.9220    -2.5590 c6         1 SNX      -0.064400
     24 C11          4.7570     1.7270    -1.9730 c6         1 SNX      -0.179400
     25 C10          4.8870     0.4800    -1.0760 c          1 SNX       0.613300
     26 O14          5.9210    -0.1740    -1.0350 o          1 SNX      -0.543100
     27 C9           3.6640     0.1360    -0.3080 cd         1 SNX      -0.247400
     28 C2           3.4870    -0.9390     0.6540 ca         1 SNX      -0.041800
     29 HN22        -5.0880     3.4090     1.4770 hn         1 SNX       0.315500
     30 HN2A        -3.3680     3.7290     1.5460 hn         1 SNX       0.315500
     31 H17         -1.5940     3.2630     1.5300 ha         1 SNX       0.111000
     32 H16          0.7320     2.5530     1.2850 ha         1 SNX       0.129000
     33 HN24        -4.0630    -0.4010     0.0770 hn         1 SNX       0.536000
     34 H25         -2.8150    -1.2300    -2.1290 h1         1 SNX       0.048200
     35 H25A        -2.2730    -2.5020    -1.0180 h1         1 SNX       0.048200
     36 H26         -4.3300    -3.1650    -2.2620 h1         1 SNX       0.033700
     37 H26A        -4.6050    -3.1230    -0.5060 h1         1 SNX       0.033700
     38 H28         -6.7980    -2.7470    -2.6370 h1         1 SNX       0.031367
     39 H28A        -7.0580    -2.6920    -0.8750 h1         1 SNX       0.031367
     40 H28B        -7.5130    -1.3030    -1.8870 h1         1 SNX       0.031367
     41 H20         -0.5420    -1.2690    -0.2050 ha         1 SNX       0.133000
     42 H6           0.6080    -1.6760     2.3270 ha         1 SNX       0.120000
     43 H5           2.1220    -3.4410     3.2720 ha         1 SNX       0.110000
     44 H4           4.5020    -3.5840     2.5300 ha         1 SNX       0.113000
     45 H3           5.3990    -1.9630     0.8370 ha         1 SNX       0.136000
     46 H13          1.2530     1.9280    -1.8850 hc         1 SNX       0.063200
     47 H13A         2.3190     2.9370    -0.9130 hc         1 SNX       0.063200
     48 H12          3.1040     1.0920    -3.2430 hc         1 SNX       0.050700
     49 H12A         3.2890     2.8400    -3.1610 hc         1 SNX       0.050700
     50 H11          5.5420     1.7210    -2.7410 hc         1 SNX       0.067700
     51 H11A         4.9450     2.5870    -1.3170 hc         1 SNX       0.067700
@<TRIPOS>BOND
     1     1     2 2   
     2     2     3 1   
     3     2     4 1   
     4     3    29 1   
     5     3    30 1   
     6     4     5 ar  
     7     4     7 ar  
     8     5     6 ar  
     9     5    31 1   
    10     6    14 ar  
    11     6    32 1   
    12     7     8 1   
    13     7    13 ar  
    14     8     9 1   
    15     8    33 1   
    16     9    10 1   
    17     9    34 1   
    18     9    35 1   
    19    10    11 1   
    20    10    36 1   
    21    10    37 1   
    22    11    12 1   
    23    12    38 1   
    24    12    39 1   
    25    12    40 1   
    26    13    14 ar  
    27    13    41 1   
    28    14    15 1   
    29    15    16 1   
    30    15    21 1   
    31    16    17 ar  
    32    16    28 ar  
    33    17    18 ar  
    34    17    42 1   
    35    18    19 ar  
    36    18    43 1   
    37    19    20 ar  
    38    19    44 1   
    39    20    28 ar  
    40    20    45 1   
    41    21    22 1   
    42    21    27 2   
    43    22    23 1   
    44    22    46 1   
    45    22    47 1   
    46    23    24 1   
    47    23    48 1   
    48    23    49 1   
    49    24    25 1   
    50    24    50 1   
    51    24    51 1   
    52    25    26 2   
    53    25    27 1   
    54    27    28 1   
@<TRIPOS>SUBSTRUCTURE
     1 SNX         1 TEMP              0 ****  ****    0 ROOT
