@<TRIPOS>MOLECULE
SNX
   51    54     1     0     0
SMALL
bcc


@<TRIPOS>ATOM
      1 O23         -4.7600     1.6670     0.0660 o          1 SNX      -0.631100
      2 C21         -3.8440     2.0930     0.7680 c          1 SNX       0.696700
      3 N22         -4.0510     3.0490     1.6860 nt         1 SNX      -0.666000
      4 C18         -2.4490     1.5880     0.6350 ca         1 SNX      -0.247600
      5 C17         -1.3740     2.4080     0.9680 ca         1 SNX      -0.045000
      6 C16         -0.0600     1.9930     0.8580 ca         1 SNX      -0.211000
      7 C19         -2.1960     0.2830     0.1290 ca         1 SNX       0.264600
      8 N24         -3.2040    -0.5590    -0.2030 nu         1 SNX      -0.757600
      9 C25         -2.9930    -1.8440    -0.8210 c3         1 SNX       0.219800
     10 C26         -4.3040    -2.5870    -0.9460 c3         1 SNX       0.120400
     11 O27         -5.1790    -1.8390    -1.7510 os         1 SNX      -0.406600
     12 C28         -6.4660    -2.3970    -1.8210 c3         1 SNX       0.123700
     13 C20         -0.8560    -0.1240     0.0080 ca         1 SNX      -0.241000
     14 C15          0.1800     0.7140     0.3740 ca         1 SNX       0.070800
     15 N7           1.5110     0.2530     0.2400 na         1 SNX       0.007500
     16 C1           2.0340    -0.8710     0.8700 ca         1 SNX      -0.051200
     17 C6           1.4270    -1.7550     1.7520 ca         1 SNX      -0.136000
     18 C5           2.2020    -2.7910     2.2450 ca         1 SNX      -0.120000
     19 C4           3.5430    -2.9350     1.8700 ca         1 SNX      -0.149000
     20 C3           4.1430    -2.0440     0.9980 ca         1 SNX      -0.077000
     21 C8           2.4800     0.8300    -0.5190 cc         1 SNX       0.015700
     22 C13          2.3100     2.0330    -1.3720 c6         1 SNX      -0.030200
     23 C12          3.3900     2.0280    -2.4510 c6         1 SNX      -0.064400
     24 C11          4.7800     1.7730    -1.8760 c6         1 SNX      -0.179400
     25 C10          4.8680     0.4950    -1.0670 c          1 SNX       0.613300
     26 O14          5.9100    -0.1330    -0.9600 o          1 SNX      -0.543100
     27 C9           3.6480     0.1060    -0.3990 cd         1 SNX      -0.247400
     28 C2           3.3820    -0.9910     0.4880 ca         1 SNX      -0.041800
     29 HN22        -4.9760     3.4280     1.8060 hn         1 SNX       0.315500
     30 HN2A        -3.3620     3.3020     2.3730 hn         1 SNX       0.315500
     31 H17         -1.5570     3.4160     1.3140 ha         1 SNX       0.129000
     32 H16          0.7530     2.6470     1.1420 ha         1 SNX       0.147000
     33 HN24        -4.0990    -0.1170    -0.3580 hn         1 SNX       0.480800
     34 H25         -2.5210    -1.7520    -1.8080 h1         1 SNX       0.048200
     35 H25A        -2.3270    -2.4560    -0.2080 h1         1 SNX       0.048200
     36 H26         -4.1100    -3.5770    -1.3790 h1         1 SNX       0.033700
     37 H26A        -4.7340    -2.7490     0.0530 h1         1 SNX       0.033700
     38 H28         -6.4540    -3.4030    -2.2580 h1         1 SNX       0.031367
     39 H28A        -6.9380    -2.4650    -0.8340 h1         1 SNX       0.031367
     40 H28B        -7.0780    -1.7550    -2.4530 h1         1 SNX       0.031367
     41 H20         -0.6150    -1.0960    -0.4010 ha         1 SNX       0.151000
     42 H6           0.3920    -1.6450     2.0490 ha         1 SNX       0.138000
     43 H5           1.7600    -3.5000     2.9330 ha         1 SNX       0.128000
     44 H4           4.1200    -3.7570     2.2750 ha         1 SNX       0.131000
     45 H3           5.1810    -2.1600     0.7180 ha         1 SNX       0.154000
     46 H13          1.3160     2.0570    -1.8230 hc         1 SNX       0.063200
     47 H13A         2.3920     2.9350    -0.7560 hc         1 SNX       0.063200
     48 H12          3.1560     1.2560    -3.1880 hc         1 SNX       0.050700
     49 H12A         3.3800     2.9810    -2.9810 hc         1 SNX       0.050700
     50 H11          5.5290     1.7440    -2.6690 hc         1 SNX       0.067700
     51 H11A         5.0630     2.5960    -1.2090 hc         1 SNX       0.067700
@<TRIPOS>BOND
     1     1     2 2   
     2     2     3 1   
     3     2     4 1   
     4     3    29 1   
     5     3    30 1   
     6     4     5 ar  
     7     4     7 ar  
     8     5     6 ar  
     9     5    31 1   
    10     6    14 ar  
    11     6    32 1   
    12     7     8 1   
    13     7    13 ar  
    14     8     9 1   
    15     8    33 1   
    16     9    10 1   
    17     9    34 1   
    18     9    35 1   
    19    10    11 1   
    20    10    36 1   
    21    10    37 1   
    22    11    12 1   
    23    12    38 1   
    24    12    39 1   
    25    12    40 1   
    26    13    14 ar  
    27    13    41 1   
    28    14    15 1   
    29    15    16 1   
    30    15    21 1   
    31    16    17 ar  
    32    16    28 ar  
    33    17    18 ar  
    34    17    42 1   
    35    18    19 ar  
    36    18    43 1   
    37    19    20 ar  
    38    19    44 1   
    39    20    28 ar  
    40    20    45 1   
    41    21    22 1   
    42    21    27 2   
    43    22    23 1   
    44    22    46 1   
    45    22    47 1   
    46    23    24 1   
    47    23    48 1   
    48    23    49 1   
    49    24    25 1   
    50    24    50 1   
    51    24    51 1   
    52    25    26 2   
    53    25    27 1   
    54    27    28 1   
@<TRIPOS>SUBSTRUCTURE
     1 SNX         1 TEMP              0 ****  ****    0 ROOT
