@<TRIPOS>MOLECULE
SNY
   27    27     1     0     0
SMALL
bcc


@<TRIPOS>ATOM
      1 C1          -0.6700     0.4980     0.0150 ca         1 SNY      -0.050800
      2 C2           0.4290     1.3590     0.0350 ca         1 SNY      -0.181500
      3 C3           1.7160     0.8430     0.0520 ca         1 SNY       0.097100
      4 O3           2.8500     1.5730     0.0740 os         1 SNY      -0.317900
      5 C4           1.9200    -0.5390     0.0480 ca         1 SNY       0.102100
      6 O4           3.1470    -1.0810     0.0640 oh         1 SNY      -0.470100
      7 C5           0.8170    -1.4050     0.0270 ca         1 SNY       0.097100
      8 O5           1.1230    -2.7130     0.0240 os         1 SNY      -0.317900
      9 C6          -0.4670    -0.8860     0.0110 ca         1 SNY      -0.181500
     10 C7          -1.9960     1.0830     0.0010 ce         1 SNY      -0.029200
     11 C8          -3.1800     0.4450    -0.0130 cf         1 SNY      -0.275200
     12 C9          -4.4020     1.2270    -0.0240 c          1 SNY       0.568100
     13 O9          -5.5240     0.7610    -0.0340 o          1 SNY      -0.518100
     14 C3M          2.7470     2.9840     0.0750 c3         1 SNY       0.128200
     15 C5M          0.0630    -3.6490     0.0110 c3         1 SNY       0.128200
     16 H2           0.2640     2.4280     0.0380 ha         1 SNY       0.140500
     17 HO4          3.8150    -0.3830     0.0740 ho         1 SNY       0.440000
     18 H6          -1.3180    -1.5500    -0.0060 ha         1 SNY       0.140500
     19 H7          -2.0170     2.1710     0.0010 ha         1 SNY       0.119000
     20 H8          -3.2660    -0.6360    -0.0130 ha         1 SNY       0.147000
     21 H9          -4.2460     2.3220    -0.0240 h4         1 SNY      -0.021800
     22 H3M          3.7640     3.3680     0.0900 h1         1 SNY       0.042700
     23 H3MA         2.2420     3.3520    -0.8210 h1         1 SNY       0.042700
     24 H3MB         2.2170     3.3490     0.9580 h1         1 SNY       0.042700
     25 H5M          0.5230    -4.6340     0.0190 h1         1 SNY       0.042700
     26 H5MA        -0.5780    -3.5530     0.8910 h1         1 SNY       0.042700
     27 H5MB        -0.5540    -3.5570    -0.8870 h1         1 SNY       0.042700
@<TRIPOS>BOND
     1     1     2 ar  
     2     1     9 ar  
     3     1    10 1   
     4     2     3 ar  
     5     2    16 1   
     6     3     4 1   
     7     3     5 ar  
     8     4    14 1   
     9     5     6 1   
    10     5     7 ar  
    11     6    17 1   
    12     7     8 1   
    13     7     9 ar  
    14     8    15 1   
    15     9    18 1   
    16    10    11 2   
    17    10    19 1   
    18    11    12 1   
    19    11    20 1   
    20    12    13 2   
    21    12    21 1   
    22    14    22 1   
    23    14    23 1   
    24    14    24 1   
    25    15    25 1   
    26    15    26 1   
    27    15    27 1   
@<TRIPOS>SUBSTRUCTURE
     1 SNY         1 TEMP              0 ****  ****    0 ROOT
