@<TRIPOS>MOLECULE
SNY
   27    27     1     0     0
SMALL
No Charge or Current Charge


@<TRIPOS>ATOM
      1 C1          -0.6430     0.5100     0.0180 ca         1 SNY      -0.050800
      2 C2           0.4780     1.3620     0.0360 ca         1 SNY      -0.163500
      3 C3           1.7860     0.8300     0.0520 ca         1 SNY       0.097100
      4 O3           2.9130     1.6350     0.0710 os         1 SNY      -0.341100
      5 C4           1.9730    -0.5680     0.0490 ca         1 SNY       0.102100
      6 O4           3.2520    -1.0670     0.0640 oh         1 SNY      -0.509100
      7 C5           0.8560    -1.4340     0.0300 ca         1 SNY       0.097100
      8 O5           1.0750    -2.8040     0.0270 os         1 SNY      -0.341100
      9 C6          -0.4480    -0.8870     0.0140 ca         1 SNY      -0.163500
     10 C7          -2.0100     1.1090     0.0010 ce         1 SNY      -0.079200
     11 C8          -3.2260     0.4870    -0.0120 cf         1 SNY      -0.325200
     12 C9          -4.5190     1.2140    -0.0270 c          1 SNY       0.568100
     13 O9          -5.5990     0.6380    -0.0390 o          1 SNY      -0.518100
     14 C3M          2.8340     3.0730     0.0750 c3         1 SNY       0.151400
     15 C5M          0.0000    -3.7610     0.0090 c3         1 SNY       0.151400
     16 H2           0.3180     2.4360     0.0380 ha         1 SNY       0.122500
     17 HO4          3.8590    -0.2940     0.0760 ho         1 SNY       0.479000
     18 H6          -1.3120    -1.5400    -0.0000 ha         1 SNY       0.122500
     19 H7          -2.0090     2.2020     0.0000 ha         1 SNY       0.169000
     20 H8          -3.2980    -0.5980    -0.0110 ha         1 SNY       0.197000
     21 H9          -4.4590     2.3250    -0.0280 h4         1 SNY      -0.021800
     22 H3M          3.8400     3.5090     0.0910 h1         1 SNY       0.042700
     23 H3MA         2.3190     3.4380    -0.8220 h1         1 SNY       0.042700
     24 H3MB         2.2950     3.4310     0.9620 h1         1 SNY       0.042700
     25 H5M          0.4010    -4.7820     0.0100 h1         1 SNY       0.042700
     26 H5MA        -0.6400    -3.6470     0.8930 h1         1 SNY       0.042700
     27 H5MB        -0.6160    -3.6400    -0.8920 h1         1 SNY       0.042700
@<TRIPOS>BOND
     1     1     2 ar  
     2     1     9 ar  
     3     1    10 1   
     4     2     3 ar  
     5     2    16 1   
     6     3     4 1   
     7     3     5 ar  
     8     4    14 1   
     9     5     6 1   
    10     5     7 ar  
    11     6    17 1   
    12     7     8 1   
    13     7     9 ar  
    14     8    15 1   
    15     9    18 1   
    16    10    11 2   
    17    10    19 1   
    18    11    12 1   
    19    11    20 1   
    20    12    13 2   
    21    12    21 1   
    22    14    22 1   
    23    14    23 1   
    24    14    24 1   
    25    15    25 1   
    26    15    26 1   
    27    15    27 1   
@<TRIPOS>SUBSTRUCTURE
     1 SNY         1 TEMP              0 ****  ****    0 ROOT
