@<TRIPOS>MOLECULE
SNZ
   38    39     1     0     0
SMALL
No Charge or Current Charge


@<TRIPOS>ATOM
      1 N          -28.4070     7.8320    24.7500 ns         1 SNZ      -0.166000
      2 C          -30.1070    10.3990    27.6720 ca         1 SNZ       0.098100
      3 O          -30.6740    11.1980    28.6230 oh         1 SNZ      -0.534100
      4 C1         -29.1230    10.9090    26.8130 ca         1 SNZ      -0.098000
      5 C10        -24.0000     6.8470    17.3710 ca         1 SNZ       0.122100
      6 C11        -23.9090     7.9580    18.2230 ca         1 SNZ      -0.119000
      7 C12        -24.8240     8.1070    19.2810 ca         1 SNZ      -0.097000
      8 C13        -29.9370     8.2280    26.5810 ca         1 SNZ      -0.218000
      9 C14        -30.5150     9.0560    27.5560 ca         1 SNZ       0.070100
     10 C2         -28.5430    10.0790    25.8360 ca         1 SNZ      -0.114000
     11 C3         -28.9460     8.7290    25.7130 ca         1 SNZ      -0.008000
     12 C4         -27.4340     7.9840    23.7760 c          1 SNZ       0.655100
     13 C5         -26.2810     6.6950    21.9460 c3         1 SNZ       0.114000
     14 C6         -26.8180     7.3080    20.6380 c3         1 SNZ      -0.057100
     15 C7         -25.8340     7.1460    19.4880 ca         1 SNZ      -0.082300
     16 C8         -25.9200     6.0310    18.6310 ca         1 SNZ      -0.158000
     17 C9         -25.0070     5.8800    17.5730 ca         1 SNZ       0.043100
     18 N1         -27.2300     6.8290    23.0570 ns         1 SNZ      -0.520900
     19 O1         -26.8060     9.0100    23.5570 o          1 SNZ      -0.620100
     20 O2         -25.0930     4.7950    16.7400 oh         1 SNZ      -0.558100
     21 O4         -31.4760     8.5560    28.3930 oh         1 SNZ      -0.556100
     22 H1         -28.8160     6.9080    24.7870 hn         1 SNZ       0.141000
     23 H2         -31.3260    10.6340    29.0970 ho         1 SNZ       0.479000
     24 H3         -28.8080    11.9460    26.9030 ha         1 SNZ       0.134000
     25 H4         -23.1310     8.7010    18.0660 ha         1 SNZ       0.133000
     26 H5         -24.7470     8.9690    19.9400 ha         1 SNZ       0.127000
     27 H6         -30.2530     7.1910    26.4920 ha         1 SNZ       0.108000
     28 H7         -27.7850    10.5050    25.1860 ha         1 SNZ       0.147000
     29 H8         -26.0750     5.6280    21.7890 h1         1 SNZ       0.061700
     30 H9         -25.3350     7.1820    22.2200 h1         1 SNZ       0.061700
     31 H10        -27.0350     8.3710    20.7980 hc         1 SNZ       0.054700
     32 H11        -27.7750     6.8350    20.3880 hc         1 SNZ       0.054700
     33 H12        -26.6970     5.2860    18.7920 ha         1 SNZ       0.108000
     34 H13        -27.7900     6.0250    23.3100 hn         1 SNZ       0.304500
     35 H14        -25.8470     4.2340    17.0270 ho         1 SNZ       0.473000
     36 H15        -23.3750     5.8550    15.8930 ho         1 SNZ       0.481000
     37 H16        -31.6280     7.6120    28.1650 ho         1 SNZ       0.473000
     38 O3         -23.1180     6.6920    16.3430 oh         1 SNZ      -0.535100
@<TRIPOS>BOND
     1     1    11 1   
     2     1    12 1   
     3     1    22 1   
     4     2     3 1   
     5     2     4 ar  
     6     2     9 ar  
     7     3    23 1   
     8     4    10 ar  
     9     4    24 1   
    10     5     6 ar  
    11     5    17 ar  
    12     5    38 1   
    13     6     7 ar  
    14     6    25 1   
    15     7    15 ar  
    16     7    26 1   
    17     8     9 ar  
    18     8    11 ar  
    19     8    27 1   
    20     9    21 1   
    21    10    11 ar  
    22    10    28 1   
    23    12    18 1   
    24    12    19 2   
    25    13    14 1   
    26    13    18 1   
    27    13    29 1   
    28    13    30 1   
    29    14    15 1   
    30    14    31 1   
    31    14    32 1   
    32    15    16 ar  
    33    16    17 ar  
    34    16    33 1   
    35    17    20 1   
    36    18    34 1   
    37    20    35 1   
    38    21    37 1   
    39    36    38 1   
@<TRIPOS>SUBSTRUCTURE
     1 SNZ         1 TEMP              0 ****  ****    0 ROOT
