@<TRIPOS>MOLECULE
SNZ
   38    39     1     0     0
SMALL
abcg2


@<TRIPOS>ATOM
      1 N          -28.7320     7.6920    24.5820 ns         1 SNZ      -0.166000
      2 C          -29.9230    10.4600    27.5170 ca         1 SNZ       0.098100
      3 O          -30.3110    11.3590    28.4520 oh         1 SNZ      -0.534100
      4 C1         -29.2860    10.9000    26.3700 ca         1 SNZ      -0.098000
      5 C10        -23.8700     6.9580    17.6440 ca         1 SNZ       0.122100
      6 C11        -23.8510     7.9480    18.6130 ca         1 SNZ      -0.119000
      7 C12        -24.8660     8.0340    19.5580 ca         1 SNZ      -0.097000
      8 C13        -29.7240     8.2000    26.6940 ca         1 SNZ      -0.218000
      9 C14        -30.1490     9.0870    27.6680 ca         1 SNZ       0.070100
     10 C2         -28.8720    10.0170    25.3780 ca         1 SNZ      -0.114000
     11 C3         -29.0810     8.6520    25.5390 ca         1 SNZ      -0.008000
     12 C4         -27.6630     7.7470    23.7230 c          1 SNZ       0.655100
     13 C5         -26.5270     6.5570    21.9150 c3         1 SNZ       0.114000
     14 C6         -26.9950     7.1990    20.6040 c3         1 SNZ      -0.057100
     15 C7         -25.9230     7.1320    19.5520 ca         1 SNZ      -0.082300
     16 C8         -25.9360     6.1340    18.5790 ca         1 SNZ      -0.158000
     17 C9         -24.9280     6.0420    17.6310 ca         1 SNZ       0.043100
     18 N1         -27.5060     6.6280    22.9730 ns         1 SNZ      -0.520900
     19 O1         -26.9090     8.7070    23.6470 o          1 SNZ      -0.620100
     20 O2         -24.8910     5.0990    16.6600 oh         1 SNZ      -0.558100
     21 O4         -30.7820     8.7050    28.8000 oh         1 SNZ      -0.556100
     22 H1         -29.2010     6.8030    24.6750 hn         1 SNZ       0.141000
     23 H2         -30.7470    10.9130    29.1870 ho         1 SNZ       0.479000
     24 H3         -29.1160    11.9620    26.2400 ha         1 SNZ       0.134000
     25 H4         -23.0330     8.6590    18.6220 ha         1 SNZ       0.133000
     26 H5         -24.8290     8.8210    20.3010 ha         1 SNZ       0.127000
     27 H6         -29.8930     7.1380    26.8360 ha         1 SNZ       0.108000
     28 H7         -28.4000    10.4100    24.4930 ha         1 SNZ       0.147000
     29 H8         -26.2970     5.5040    21.7460 h1         1 SNZ       0.061700
     30 H9         -25.6050     7.0320    22.2490 h1         1 SNZ       0.061700
     31 H10        -27.2640     8.2400    20.7960 hc         1 SNZ       0.054700
     32 H11        -27.8990     6.6930    20.2600 hc         1 SNZ       0.054700
     33 H12        -26.7490     5.4150    18.5570 ha         1 SNZ       0.108000
     34 H13        -28.2230     5.9200    22.9830 hn         1 SNZ       0.304500
     35 H14        -25.6760     4.5400    16.6940 ho         1 SNZ       0.473000
     36 H15        -23.0220     6.1900    16.1060 ho         1 SNZ       0.481000
     37 H16        -30.8760     7.7470    28.8360 ho         1 SNZ       0.473000
     38 O3         -22.8710     6.9060    16.7350 oh         1 SNZ      -0.535100
@<TRIPOS>BOND
     1     1    11 1   
     2     1    12 1   
     3     1    22 1   
     4     2     3 1   
     5     2     4 ar  
     6     2     9 ar  
     7     3    23 1   
     8     4    10 ar  
     9     4    24 1   
    10     5     6 ar  
    11     5    17 ar  
    12     5    38 1   
    13     6     7 ar  
    14     6    25 1   
    15     7    15 ar  
    16     7    26 1   
    17     8     9 ar  
    18     8    11 ar  
    19     8    27 1   
    20     9    21 1   
    21    10    11 ar  
    22    10    28 1   
    23    12    18 1   
    24    12    19 2   
    25    13    14 1   
    26    13    18 1   
    27    13    29 1   
    28    13    30 1   
    29    14    15 1   
    30    14    31 1   
    31    14    32 1   
    32    15    16 ar  
    33    16    17 ar  
    34    16    33 1   
    35    17    20 1   
    36    18    34 1   
    37    20    35 1   
    38    21    37 1   
    39    36    38 1   
@<TRIPOS>SUBSTRUCTURE
     1 SNZ         1 TEMP              0 ****  ****    0 ROOT
