@<TRIPOS>MOLECULE
SO1
   76    80     1     0     0
SMALL
No Charge or Current Charge


@<TRIPOS>ATOM
      1 O14          0.8350    -2.2680    -3.4090 o          1 SO1      -0.720000
      2 C5           0.9890    -1.7320    -2.3220 c          1 SO1       0.723000
      3 O15          1.2490    -2.4010    -1.3330 o          1 SO1      -0.720000
      4 C1           0.8340    -0.1670    -2.1800 c5         1 SO1      -0.122000
      5 C4           2.2430     0.5270    -1.8620 c5         1 SO1      -0.059700
      6 C12          1.8120     1.8750    -1.1850 c5         1 SO1      -0.082400
      7 C6           0.2480     1.8020    -1.2180 c5         1 SO1      -0.062700
      8 C10         -0.0980     2.0410    -2.7440 c5         1 SO1      -0.075400
      9 C3           0.0120     0.5900    -3.3550 c5         1 SO1      -0.125000
     10 C11          0.7170     0.6210    -4.7490 c          1 SO1       0.617900
     11 O19          0.4810    -0.1040    -5.7120 o          1 SO1      -0.532100
     12 C9          -1.4400    -0.0860    -3.4790 c5         1 SO1      -0.050700
     13 C18         -2.3830     0.5870    -4.5170 c5         1 SO1      -0.069400
     14 C24         -3.7850     0.0250    -4.0790 c5         1 SO1      -0.077400
     15 C22         -3.6260    -0.4540    -2.5830 c5         1 SO1      -0.053700
     16 C25         -3.7360    -1.9930    -2.4100 c3         1 SO1      -0.085100
     17 C16         -2.2600     0.1950    -2.2060 c5         1 SO1      -0.063700
     18 C7          -1.5160    -0.2210    -0.9380 c6         1 SO1      -0.047400
     19 C2          -0.0190     0.2740    -0.9070 c5         1 SO1      -0.029000
     20 C8           0.4950    -0.1760     0.5190 c3         1 SO1       0.180600
     21 O17         -0.1270     0.6570     1.5200 os         1 SO1      -0.482000
     22 C52          0.2510     0.3950     2.8810 c6         1 SO1       0.371300
     23 O56         -0.2700    -0.9020     3.2320 os         1 SO1      -0.471000
     24 C56          0.0540    -1.3120     4.5780 c6         1 SO1       0.193300
     25 C61         -0.4780    -2.7590     4.7370 c3         1 SO1      -0.084100
     26 C55         -0.5610    -0.3230     5.6190 c6         1 SO1       0.143300
     27 O64         -0.2260    -0.7380     6.9720 os         1 SO1      -0.441000
     28 C65         -0.8420    -0.0150     8.0530 c3         1 SO1       0.151900
     29 C54         -0.0910     1.1420     5.2990 c6         1 SO1       0.136300
     30 O60          1.3150     1.3140     5.5890 oh         1 SO1      -0.706000
     31 C53         -0.3880     1.4870     3.8050 c6         1 SO1       0.121300
     32 O57         -1.8110     1.5770     3.5650 oh         1 SO1      -0.724000
     33 C13          3.4180     0.6720    -2.9560 c3         1 SO1      -0.040700
     34 C20          4.7580     1.2730    -2.3930 c3         1 SO1      -0.092100
     35 C21          3.7830    -0.6220    -3.7650 c3         1 SO1      -0.092100
     36 H4           2.7460    -0.0870    -1.1080 hc         1 SO1       0.065700
     37 H121         2.2040     2.7600    -1.7000 hc         1 SO1       0.024700
     38 H122         2.1920     1.9450    -0.1590 hc         1 SO1       0.024700
     39 H6          -0.2400     2.5100    -0.5380 hc         1 SO1       0.049700
     40 H101         0.6070     2.7340    -3.2170 hc         1 SO1       0.028700
     41 H102        -1.0610     2.5370    -2.8900 hc         1 SO1       0.028700
     42 H11          1.4280     1.4610    -4.8880 h4         1 SO1      -0.041800
     43 H9          -1.3590    -1.1550    -3.6970 hc         1 SO1       0.107700
     44 H181        -2.1460     0.3120    -5.5500 hc         1 SO1       0.038200
     45 H182        -2.3700     1.6810    -4.4680 hc         1 SO1       0.038200
     46 H241        -4.0970    -0.8010    -4.7290 hc         1 SO1       0.026700
     47 H242        -4.5580     0.7960    -4.1710 hc         1 SO1       0.026700
     48 H22         -4.4240    -0.0300    -1.9620 hc         1 SO1       0.027700
     49 H251        -4.7160    -2.3490    -2.7500 hc         1 SO1       0.033033
     50 H252        -2.9760    -2.5350    -2.9820 hc         1 SO1       0.033033
     51 H253        -3.6360    -2.2810    -1.3580 hc         1 SO1       0.033033
     52 H16         -2.4710     1.2560    -2.0420 hc         1 SO1       0.027700
     53 H71         -1.5240    -1.3160    -0.8540 hc         1 SO1       0.048200
     54 H72         -2.0730     0.1550    -0.0690 hc         1 SO1       0.048200
     55 H81          1.5820    -0.1040     0.6120 h1         1 SO1       0.059200
     56 H82          0.2330    -1.2290     0.6860 h1         1 SO1       0.059200
     57 H52          1.3480     0.4050     2.9780 h2         1 SO1       0.032700
     58 H56          1.1480    -1.3300     4.6890 h1         1 SO1       0.055700
     59 H611        -0.0520    -3.4190     3.9720 hc         1 SO1       0.045367
     60 H612        -0.2100    -3.1730     5.7160 hc         1 SO1       0.045367
     61 H613        -1.5700    -2.7940     4.6450 hc         1 SO1       0.045367
     62 H55         -1.6550    -0.3650     5.5150 h1         1 SO1       0.062700
     63 H651        -0.5710    -0.4690     9.0150 h1         1 SO1       0.023367
     64 H652        -0.5120     1.0310     8.0690 h1         1 SO1       0.023367
     65 H653        -1.9360    -0.0360     7.9620 h1         1 SO1       0.023367
     66 H54         -0.6770     1.8330     5.9230 h1         1 SO1       0.040700
     67 H60          1.4430     2.2540     5.8560 ho         1 SO1       0.496000
     68 H53          0.0820     2.4530     3.5680 h1         1 SO1       0.033700
     69 H57         -1.9190     1.2550     2.6370 ho         1 SO1       0.534000
     70 H13          3.0970     1.4150    -3.6880 hc         1 SO1       0.026700
     71 H201         5.4850     1.4400    -3.1970 hc         1 SO1       0.031867
     72 H202         4.5780     2.2350    -1.9000 hc         1 SO1       0.031867
     73 H203         5.2070     0.5940    -1.6580 hc         1 SO1       0.031867
     74 H211         4.0830    -1.4280    -3.0860 hc         1 SO1       0.031867
     75 H212         2.9340    -0.9700    -4.3590 hc         1 SO1       0.031867
     76 H213         4.6100    -0.4310    -4.4590 hc         1 SO1       0.031867
@<TRIPOS>BOND
     1     1     2 1   
     2     2     3 1   
     3     2     4 1   
     4     4     5 1   
     5     4     9 1   
     6     4    19 1   
     7     5     6 1   
     8     5    33 1   
     9     5    36 1   
    10     6     7 1   
    11     6    37 1   
    12     6    38 1   
    13     7     8 1   
    14     7    19 1   
    15     7    39 1   
    16     8     9 1   
    17     8    40 1   
    18     8    41 1   
    19     9    10 1   
    20     9    12 1   
    21    10    11 2   
    22    10    42 1   
    23    12    13 1   
    24    12    17 1   
    25    12    43 1   
    26    13    14 1   
    27    13    44 1   
    28    13    45 1   
    29    14    15 1   
    30    14    46 1   
    31    14    47 1   
    32    15    16 1   
    33    15    17 1   
    34    15    48 1   
    35    16    49 1   
    36    16    50 1   
    37    16    51 1   
    38    17    18 1   
    39    17    52 1   
    40    18    19 1   
    41    18    53 1   
    42    18    54 1   
    43    19    20 1   
    44    20    21 1   
    45    20    55 1   
    46    20    56 1   
    47    21    22 1   
    48    22    23 1   
    49    22    31 1   
    50    22    57 1   
    51    23    24 1   
    52    24    25 1   
    53    24    26 1   
    54    24    58 1   
    55    25    59 1   
    56    25    60 1   
    57    25    61 1   
    58    26    27 1   
    59    26    29 1   
    60    26    62 1   
    61    27    28 1   
    62    28    63 1   
    63    28    64 1   
    64    28    65 1   
    65    29    30 1   
    66    29    31 1   
    67    29    66 1   
    68    30    67 1   
    69    31    32 1   
    70    31    68 1   
    71    32    69 1   
    72    33    34 1   
    73    33    35 1   
    74    33    70 1   
    75    34    71 1   
    76    34    72 1   
    77    34    73 1   
    78    35    74 1   
    79    35    75 1   
    80    35    76 1   
@<TRIPOS>SUBSTRUCTURE
     1 SO1         1 TEMP              0 ****  ****    0 ROOT
