@<TRIPOS>MOLECULE
SO1
   76    80     1     0     0
SMALL
abcg2


@<TRIPOS>ATOM
      1 O14          0.7880    -2.1550    -3.5210 o          1 SO1      -0.720000
      2 C5           0.9130    -1.7060    -2.3650 c          1 SO1       0.723000
      3 O15          1.1760    -2.3800    -1.3470 o          1 SO1      -0.720000
      4 C1           0.7660    -0.1880    -2.1540 c5         1 SO1      -0.122000
      5 C4           2.1410     0.4760    -1.7640 c5         1 SO1      -0.059700
      6 C12          1.7210     1.8020    -1.0680 c5         1 SO1      -0.082400
      7 C6           0.1970     1.7700    -1.1740 c5         1 SO1      -0.062700
      8 C10         -0.1000     1.9970    -2.6720 c5         1 SO1      -0.075400
      9 C3          -0.0190     0.5790    -3.2930 c5         1 SO1      -0.125000
     10 C11          0.7230     0.6310    -4.5950 c          1 SO1       0.617900
     11 O19          0.3840     0.1310    -5.6390 o          1 SO1      -0.532100
     12 C9          -1.4300    -0.0090    -3.4580 c5         1 SO1      -0.050700
     13 C18         -2.3680     0.5060    -4.5510 c5         1 SO1      -0.069400
     14 C24         -3.7610     0.0190    -4.0880 c5         1 SO1      -0.077400
     15 C22         -3.6360    -0.3650    -2.5870 c5         1 SO1      -0.053700
     16 C25         -3.7350    -1.8690    -2.3590 c3         1 SO1      -0.085100
     17 C16         -2.2750     0.2360    -2.2190 c5         1 SO1      -0.063700
     18 C7          -1.5570    -0.2030    -0.9720 c6         1 SO1      -0.047400
     19 C2          -0.0910     0.2670    -0.9170 c5         1 SO1      -0.029000
     20 C8           0.4160    -0.1990     0.4550 c3         1 SO1       0.180600
     21 O17         -0.2040     0.6180     1.4450 os         1 SO1      -0.482000
     22 C52          0.2160     0.3910     2.7350 c6         1 SO1       0.371300
     23 O56         -0.2040    -0.8910     3.1270 os         1 SO1      -0.471000
     24 C56          0.2160    -1.2550     4.4280 c6         1 SO1       0.193300
     25 C61         -0.1980    -2.6930     4.6590 c3         1 SO1      -0.084100
     26 C55         -0.4170    -0.2900     5.4360 c6         1 SO1       0.143300
     27 O64          0.0260    -0.6600     6.7140 os         1 SO1      -0.441000
     28 C65         -0.6890    -0.0750     7.7730 c3         1 SO1       0.151900
     29 C54         -0.0720     1.1630     5.0940 c6         1 SO1       0.136300
     30 O60          1.3030     1.3460     5.3340 oh         1 SO1      -0.706000
     31 C53         -0.4100     1.4580     3.6280 c6         1 SO1       0.121300
     32 O57         -1.8090     1.4870     3.5070 oh         1 SO1      -0.724000
     33 C13          3.3160     0.6650    -2.7360 c3         1 SO1      -0.040700
     34 C20          4.5270     1.1620    -1.9440 c3         1 SO1      -0.092100
     35 C21          3.6960    -0.6060    -3.4870 c3         1 SO1      -0.092100
     36 H4           2.5470    -0.2010    -1.0080 hc         1 SO1       0.065700
     37 H121         2.1350     2.6790    -1.5730 hc         1 SO1       0.024700
     38 H122         2.0700     1.8470    -0.0350 hc         1 SO1       0.024700
     39 H6          -0.3190     2.4730    -0.5180 hc         1 SO1       0.049700
     40 H101         0.6390     2.6760    -3.1090 hc         1 SO1       0.028700
     41 H102        -1.0670     2.4620    -2.8630 hc         1 SO1       0.028700
     42 H11          1.6390     1.2470    -4.5690 h4         1 SO1      -0.041800
     43 H9          -1.3200    -1.0870    -3.5990 hc         1 SO1       0.107700
     44 H181        -2.1220     0.1410    -5.5460 hc         1 SO1       0.038200
     45 H182        -2.3380     1.6000    -4.5950 hc         1 SO1       0.038200
     46 H241        -4.0820    -0.8440    -4.6760 hc         1 SO1       0.026700
     47 H242        -4.5190     0.7900    -4.2380 hc         1 SO1       0.026700
     48 H22         -4.4290     0.1130    -2.0050 hc         1 SO1       0.027700
     49 H251        -4.6810    -2.2540    -2.7460 hc         1 SO1       0.033033
     50 H252        -2.9320    -2.4140    -2.8610 hc         1 SO1       0.033033
     51 H253        -3.6920    -2.1210    -1.2980 hc         1 SO1       0.033033
     52 H16         -2.4490     1.3160    -2.1400 hc         1 SO1       0.027700
     53 H71         -1.5500    -1.2960    -0.9070 hc         1 SO1       0.048200
     54 H72         -2.0840     0.1530    -0.0830 hc         1 SO1       0.048200
     55 H81          1.5000    -0.1270     0.5780 h1         1 SO1       0.059200
     56 H82          0.1500    -1.2450     0.6000 h1         1 SO1       0.059200
     57 H52          1.3180     0.4560     2.8120 h2         1 SO1       0.032700
     58 H56          1.3120    -1.1810     4.5010 h1         1 SO1       0.055700
     59 H611         0.2360    -3.3440     3.8990 hc         1 SO1       0.045367
     60 H612         0.1450    -3.0420     5.6310 hc         1 SO1       0.045367
     61 H613        -1.2840    -2.8010     4.6230 hc         1 SO1       0.045367
     62 H55         -1.5110    -0.3950     5.3640 h1         1 SO1       0.062700
     63 H651        -0.3470    -0.5380     8.6980 h1         1 SO1       0.023367
     64 H652        -0.5250     1.0040     7.8530 h1         1 SO1       0.023367
     65 H653        -1.7680    -0.2460     7.6790 h1         1 SO1       0.023367
     66 H54         -0.6720     1.8390     5.7200 h1         1 SO1       0.040700
     67 H60          1.5140     2.2750     5.1990 ho         1 SO1       0.496000
     68 H53          0.0310     2.4310     3.3580 h1         1 SO1       0.033700
     69 H57         -2.0300     1.5320     2.5710 ho         1 SO1       0.534000
     70 H13          3.0820     1.4480    -3.4650 hc         1 SO1       0.026700
     71 H201         5.3930     1.2850    -2.5980 hc         1 SO1       0.031867
     72 H202         4.3400     2.1220    -1.4630 hc         1 SO1       0.031867
     73 H203         4.8020     0.4480    -1.1630 hc         1 SO1       0.031867
     74 H211         3.9250    -1.4120    -2.7840 hc         1 SO1       0.031867
     75 H212         2.9000    -0.9640    -4.1360 hc         1 SO1       0.031867
     76 H213         4.5830    -0.4390    -4.1010 hc         1 SO1       0.031867
@<TRIPOS>BOND
     1     1     2 1   
     2     2     3 1   
     3     2     4 1   
     4     4     5 1   
     5     4     9 1   
     6     4    19 1   
     7     5     6 1   
     8     5    33 1   
     9     5    36 1   
    10     6     7 1   
    11     6    37 1   
    12     6    38 1   
    13     7     8 1   
    14     7    19 1   
    15     7    39 1   
    16     8     9 1   
    17     8    40 1   
    18     8    41 1   
    19     9    10 1   
    20     9    12 1   
    21    10    11 2   
    22    10    42 1   
    23    12    13 1   
    24    12    17 1   
    25    12    43 1   
    26    13    14 1   
    27    13    44 1   
    28    13    45 1   
    29    14    15 1   
    30    14    46 1   
    31    14    47 1   
    32    15    16 1   
    33    15    17 1   
    34    15    48 1   
    35    16    49 1   
    36    16    50 1   
    37    16    51 1   
    38    17    18 1   
    39    17    52 1   
    40    18    19 1   
    41    18    53 1   
    42    18    54 1   
    43    19    20 1   
    44    20    21 1   
    45    20    55 1   
    46    20    56 1   
    47    21    22 1   
    48    22    23 1   
    49    22    31 1   
    50    22    57 1   
    51    23    24 1   
    52    24    25 1   
    53    24    26 1   
    54    24    58 1   
    55    25    59 1   
    56    25    60 1   
    57    25    61 1   
    58    26    27 1   
    59    26    29 1   
    60    26    62 1   
    61    27    28 1   
    62    28    63 1   
    63    28    64 1   
    64    28    65 1   
    65    29    30 1   
    66    29    31 1   
    67    29    66 1   
    68    30    67 1   
    69    31    32 1   
    70    31    68 1   
    71    32    69 1   
    72    33    34 1   
    73    33    35 1   
    74    33    70 1   
    75    34    71 1   
    76    34    72 1   
    77    34    73 1   
    78    35    74 1   
    79    35    75 1   
    80    35    76 1   
@<TRIPOS>SUBSTRUCTURE
     1 SO1         1 TEMP              0 ****  ****    0 ROOT
