@<TRIPOS>MOLECULE
SO2
    3     2     1     0     0
SMALL
abcg2


@<TRIPOS>ATOM
      1 S           -0.2940     0.0230     0.0240 ss         1 SO2       1.136000
      2 O1           0.4090     0.0180    -1.2390 o          1 SO2      -0.568000
      3 O2           0.5010     0.0540     1.2300 o          1 SO2      -0.568000
@<TRIPOS>BOND
     1     1     2 1   
     2     1     3 1   
@<TRIPOS>SUBSTRUCTURE
     1 SO2         1 TEMP              0 ****  ****    0 ROOT
