@<TRIPOS>MOLECULE
SO2
    3     2     1     0     0
SMALL
No Charge or Current Charge


@<TRIPOS>ATOM
      1 S           -0.3280     0.0220     0.0250 ss         1 SO2       1.136000
      2 O1           0.4240     0.0180    -1.2920 o          1 SO2      -0.568000
      3 O2           0.5200     0.0550     1.2820 o          1 SO2      -0.568000
@<TRIPOS>BOND
     1     1     2 1   
     2     1     3 1   
@<TRIPOS>SUBSTRUCTURE
     1 SO2         1 TEMP              0 ****  ****    0 ROOT
