@<TRIPOS>MOLECULE
SO3
    4     3     1     0     0
SMALL
abcg2


@<TRIPOS>ATOM
      1 S           -5.9220     0.6880    17.2690 s4         1 SO3       0.308800
      2 O1          -4.8390     1.7780    17.3490 o          1 SO3      -0.720733
      3 O2          -7.1220     1.3170    16.5360 o          1 SO3      -0.720733
      4 O3          -5.3680    -0.4110    16.3440 o          1 SO3      -0.867333
@<TRIPOS>BOND
     1     1     2 1   
     2     1     3 1   
     3     1     4 2   
@<TRIPOS>SUBSTRUCTURE
     1 SO3         1 TEMP              0 ****  ****    0 ROOT
