@<TRIPOS>MOLECULE
SO3
    4     3     1     0     0
SMALL
No Charge or Current Charge


@<TRIPOS>ATOM
      1 S           -5.8820     0.7470    17.1220 s4         1 SO3       0.308800
      2 O1          -4.8300     1.7770    17.4130 o          1 SO3      -0.720733
      3 O2          -7.1640     1.3040    16.5780 o          1 SO3      -0.720733
      4 O3          -5.3740    -0.4570    16.3850 o          1 SO3      -0.867333
@<TRIPOS>BOND
     1     1     2 1   
     2     1     3 1   
     3     1     4 2   
@<TRIPOS>SUBSTRUCTURE
     1 SO3         1 TEMP              0 ****  ****    0 ROOT
