@<TRIPOS>MOLECULE
SO4
    5     4     1     0     0
SMALL
bcc


@<TRIPOS>ATOM
      1 S           16.5170    34.9550     5.4720 s6         1 SO4       1.420800
      2 O1          17.8360    34.8080     4.7770 o          1 SO4      -0.855200
      3 O2          16.6530    35.9270     6.6030 o          1 SO4      -0.855200
      4 O3          15.4960    35.4600     4.4970 o          1 SO4      -0.855200
      5 O4          16.0830    33.6230     6.0060 o          1 SO4      -0.855200
@<TRIPOS>BOND
     1     1     2 1   
     2     1     3 1   
     3     1     4 1   
     4     1     5 1   
@<TRIPOS>SUBSTRUCTURE
     1 SO4         1 TEMP              0 ****  ****    0 ROOT
