@<TRIPOS>MOLECULE
SO4
    5     4     1     0     0
SMALL
No Charge or Current Charge


@<TRIPOS>ATOM
      1 S           16.5170    34.9550     5.4710 s6         1 SO4       1.420800
      2 O1          17.8090    34.8110     4.7920 o          1 SO4      -0.855200
      3 O2          16.6500    35.9060     6.5790 o          1 SO4      -0.855200
      4 O3          15.5170    35.4490     4.5190 o          1 SO4      -0.855200
      5 O4          16.0920    33.6520     5.9940 o          1 SO4      -0.855200
@<TRIPOS>BOND
     1     1     2 1   
     2     1     3 1   
     3     1     4 1   
     4     1     5 1   
@<TRIPOS>SUBSTRUCTURE
     1 SO4         1 TEMP              0 ****  ****    0 ROOT
