@<TRIPOS>MOLECULE
SO7
   38    39     1     0     0
SMALL
No Charge or Current Charge


@<TRIPOS>ATOM
      1 N1          51.2890   116.9020    31.9650 n          1 SO7      -0.287300
      2 C4          43.5790   117.1220    35.4160 ca         1 SO7       0.129100
      3 C5          41.7250   117.7000    36.9390 c3         1 SO7       0.148900
      4 C6          44.2730   116.1210    34.7240 ca         1 SO7      -0.157000
      5 C7          45.3750   116.4450    33.9150 ca         1 SO7      -0.085500
      6 C8          48.0120   117.1440    32.6500 c5         1 SO7       0.114000
      7 C10         48.2160   119.0250    31.1980 c5         1 SO7      -0.163400
      8 C13         52.3100   116.0020    31.3890 c3         1 SO7       0.088300
      9 N           46.8760   118.0760    32.8520 n          1 SO7      -0.238400
     10 C           46.9910   119.2520    32.0790 c          1 SO7       0.567000
     11 O           46.3510   120.2860    32.2150 o          1 SO7      -0.530000
     12 C1          45.8390   117.7750    33.8170 ca         1 SO7      -0.067000
     13 C11         50.1070   117.2340    31.2460 c          1 SO7       0.619100
     14 C12         52.3810   118.4090    33.4420 c3         1 SO7       0.117900
     15 C2          45.0890   118.7860    34.4620 ca         1 SO7      -0.085500
     16 C3          43.9870   118.4640    35.2750 ca         1 SO7      -0.157000
     17 C9          49.1060   118.0930    32.0750 c5         1 SO7      -0.150700
     18 O2          49.9040   116.8140    30.1120 o          1 SO7      -0.579100
     19 O3          51.5150   117.2640    33.3260 os         1 SO7      -0.240100
     20 H1          40.9250   117.1900    37.4910 h1         1 SO7       0.040700
     21 H2          42.3510   118.2330    37.6650 h1         1 SO7       0.040700
     22 H3          41.2600   118.4330    36.2680 h1         1 SO7       0.040700
     23 H4          43.9460   115.0870    34.8040 ha         1 SO7       0.123500
     24 H5          45.8680   115.6470    33.3640 ha         1 SO7       0.123000
     25 H6          47.7350   116.3560    31.9360 h1         1 SO7       0.060200
     26 H7          48.3310   116.6690    33.5870 h1         1 SO7       0.060200
     27 H8          48.6730   119.9700    30.8890 hc         1 SO7       0.093200
     28 H9          47.8750   118.4820    30.3100 hc         1 SO7       0.093200
     29 H10         53.0910   115.7900    32.1310 h1         1 SO7       0.052700
     30 H11         51.8440   115.0570    31.0860 h1         1 SO7       0.052700
     31 H12         52.7680   116.4770    30.5120 h1         1 SO7       0.052700
     32 H13         52.5170   118.6760    34.4970 h1         1 SO7       0.045367
     33 H14         53.3680   118.1970    33.0130 h1         1 SO7       0.045367
     34 H15         51.9550   119.2750    32.9210 h1         1 SO7       0.045367
     35 H16         45.3750   119.8300    34.3830 ha         1 SO7       0.123000
     36 H17         43.4610   119.2690    35.7800 ha         1 SO7       0.123500
     37 H18         49.5840   118.6290    32.9000 hc         1 SO7       0.080700
     38 O1          42.5030   116.7460    36.1950 os         1 SO7      -0.341100
@<TRIPOS>BOND
     1     1     8 1   
     2     1    13 1   
     3     1    19 1   
     4     2     4 ar  
     5     2    16 ar  
     6     2    38 1   
     7     3    20 1   
     8     3    21 1   
     9     3    22 1   
    10     3    38 1   
    11     4     5 ar  
    12     4    23 1   
    13     5    12 ar  
    14     5    24 1   
    15     6     9 1   
    16     6    17 1   
    17     6    25 1   
    18     6    26 1   
    19     7    10 1   
    20     7    17 1   
    21     7    27 1   
    22     7    28 1   
    23     8    29 1   
    24     8    30 1   
    25     8    31 1   
    26     9    10 1   
    27     9    12 1   
    28    10    11 2   
    29    12    15 ar  
    30    13    17 1   
    31    13    18 2   
    32    14    19 1   
    33    14    32 1   
    34    14    33 1   
    35    14    34 1   
    36    15    16 ar  
    37    15    35 1   
    38    16    36 1   
    39    17    37 1   
@<TRIPOS>SUBSTRUCTURE
     1 SO7         1 TEMP              0 ****  ****    0 ROOT
