@<TRIPOS>MOLECULE
SO7
   38    39     1     0     0
SMALL
bcc


@<TRIPOS>ATOM
      1 N1          51.1730   116.9670    31.8930 n          1 SO7      -0.354300
      2 C4          43.7390   117.1320    35.3980 ca         1 SO7       0.129100
      3 C5          41.9740   117.6620    36.8890 c3         1 SO7       0.125700
      4 C6          44.4700   116.1490    34.7290 ca         1 SO7      -0.175000
      5 C7          45.5110   116.5000    33.8900 ca         1 SO7      -0.103500
      6 C8          48.1330   117.3600    32.7850 c5         1 SO7       0.114000
      7 C10         48.1710   119.0810    31.1180 c5         1 SO7      -0.163400
      8 C13         52.1200   116.0110    31.3710 c3         1 SO7       0.088300
      9 N           46.9310   118.1760    32.8580 n          1 SO7      -0.398000
     10 C           46.8830   119.1430    31.9030 c          1 SO7       0.709500
     11 O           45.9510   119.8970    31.7020 o          1 SO7      -0.605500
     12 C1          45.8580   117.8370    33.7050 ca         1 SO7       0.025600
     13 C11         50.1110   117.4420    31.2050 c          1 SO7       0.686100
     14 C12         52.0700   118.0520    33.7240 c3         1 SO7       0.094700
     15 C2          45.1410   118.8130    34.3850 ca         1 SO7      -0.103500
     16 C3          44.0850   118.4690    35.2190 ca         1 SO7      -0.175000
     17 C9          49.1010   118.2540    31.9940 c5         1 SO7      -0.150700
     18 O2          49.9800   117.2210    30.0130 o          1 SO7      -0.579100
     19 O3          51.1540   117.0650    33.2610 os         1 SO7      -0.216900
     20 H1          41.2220   117.1120    37.4500 h1         1 SO7       0.040700
     21 H2          42.5840   118.2360    37.5920 h1         1 SO7       0.040700
     22 H3          41.4690   118.3570    36.2130 h1         1 SO7       0.040700
     23 H4          44.2120   115.1060    34.8630 ha         1 SO7       0.141500
     24 H5          46.0500   115.7160    33.3740 ha         1 SO7       0.141000
     25 H6          47.9370   116.4190    32.2610 h1         1 SO7       0.060200
     26 H7          48.4980   117.1240    33.7830 h1         1 SO7       0.060200
     27 H8          48.5490   120.0780    30.8980 hc         1 SO7       0.093200
     28 H9          47.9630   118.5890    30.1640 hc         1 SO7       0.093200
     29 H10         53.1200   116.2380    31.7390 h1         1 SO7       0.052700
     30 H11         51.8560   114.9930    31.6600 h1         1 SO7       0.052700
     31 H12         52.1370   116.0790    30.2880 h1         1 SO7       0.052700
     32 H13         52.0050   118.0330    34.8090 h1         1 SO7       0.045367
     33 H14         53.0960   117.8240    33.4270 h1         1 SO7       0.045367
     34 H15         51.8050   119.0480    33.3640 h1         1 SO7       0.045367
     35 H16         45.4050   119.8560    34.2860 ha         1 SO7       0.141000
     36 H17         43.5540   119.2610    35.7280 ha         1 SO7       0.141500
     37 H18         49.6010   118.9240    32.6960 hc         1 SO7       0.080700
     38 O1          42.7370   116.7020    36.1880 os         1 SO7      -0.317900
@<TRIPOS>BOND
     1     1     8 1   
     2     1    13 1   
     3     1    19 1   
     4     2     4 ar  
     5     2    16 ar  
     6     2    38 1   
     7     3    20 1   
     8     3    21 1   
     9     3    22 1   
    10     3    38 1   
    11     4     5 ar  
    12     4    23 1   
    13     5    12 ar  
    14     5    24 1   
    15     6     9 1   
    16     6    17 1   
    17     6    25 1   
    18     6    26 1   
    19     7    10 1   
    20     7    17 1   
    21     7    27 1   
    22     7    28 1   
    23     8    29 1   
    24     8    30 1   
    25     8    31 1   
    26     9    10 1   
    27     9    12 1   
    28    10    11 2   
    29    12    15 ar  
    30    13    17 1   
    31    13    18 2   
    32    14    19 1   
    33    14    32 1   
    34    14    33 1   
    35    14    34 1   
    36    15    16 ar  
    37    15    35 1   
    38    16    36 1   
    39    17    37 1   
@<TRIPOS>SUBSTRUCTURE
     1 SO7         1 TEMP              0 ****  ****    0 ROOT
