@<TRIPOS>MOLECULE
SO8
   52    54     1     0     0
SMALL
bcc


@<TRIPOS>ATOM
      1 C            2.1690     0.0570     0.7950 c          1 SO8       0.630100
      2 N            3.0570     2.1150     1.8100 n8         1 SO8      -0.880800
      3 O            2.5580    -0.7320     1.6470 o          1 SO8      -0.626100
      4 N1          -2.8750     3.2830    -0.2620 nb         1 SO8      -0.829000
      5 C2          -1.7050     2.8750    -0.7440 ca         1 SO8       0.714900
      6 N3          -1.2580     1.6370    -0.8690 nb         1 SO8      -0.781000
      7 C4          -2.1530     0.7480    -0.4380 ca         1 SO8       0.447800
      8 C5          -3.4030     1.0170     0.0930 ca         1 SO8      -0.225200
      9 C6          -3.7600     2.3770     0.1720 ca         1 SO8       0.784200
     10 N6          -4.9280     2.7890     0.6610 nv         1 SO8      -0.950500
     11 N7          -4.0410    -0.1450     0.4410 nc         1 SO8      -0.559100
     12 C8          -3.1980    -1.0870     0.1300 cd         1 SO8       0.423700
     13 N9          -2.0360    -0.6080    -0.4120 na         1 SO8      -0.274000
     14 CA           2.8720     1.3940     0.5640 c3         1 SO8       0.097500
     15 CB           4.2210     1.1690    -0.1440 c3         1 SO8      -0.047700
     16 NAI          1.1020    -0.1840     0.0180 ns         1 SO8      -0.546900
     17 CAJ          0.2670    -1.3410     0.1800 c5         1 SO8       0.080700
     18 CAK          0.9100    -2.7070    -0.0660 c5         1 SO8       0.111100
     19 OAL          1.7550    -2.6030    -1.1770 oh         1 SO8      -0.570800
     20 CAM         -0.3370    -3.5460    -0.3560 c5         1 SO8       0.099100
     21 CAN         -0.9890    -4.0750     0.9080 c3         1 SO8       0.118400
     22 OAO         -2.2060    -4.6860     0.5620 oh         1 SO8      -0.583800
     23 OAP         -1.2150    -2.6720    -1.0680 os         1 SO8      -0.377600
     24 CAQ         -0.8670    -1.3450    -0.8560 c5         1 SO8       0.252800
     25 CG1          4.8860     2.5110    -0.4640 c3         1 SO8      -0.072400
     26 CG2          4.0510     0.3280    -1.4070 c3         1 SO8      -0.098100
     27 HN           2.1590     2.3430     2.2180 hn         1 SO8       0.351800
     28 HNA          3.5290     1.5180     2.4780 hn         1 SO8       0.351800
     29 HN6         -5.1550     3.7680     0.6810 hn         1 SO8       0.453800
     30 HN6A        -5.6220     2.1320     0.9730 hn         1 SO8       0.453800
     31 H8          -3.3700    -2.1450     0.2590 h5         1 SO8       0.084800
     32 HA           2.2540     2.0190    -0.0920 h1         1 SO8       0.066700
     33 HB           4.8680     0.6200     0.5530 hc         1 SO8       0.059700
     34 HNAI         0.7610     0.5580    -0.5790 hn         1 SO8       0.351500
     35 HAJ         -0.1680    -1.3530     1.1860 h1         1 SO8       0.070700
     36 HAK          1.4390    -3.0700     0.8210 h1         1 SO8       0.078700
     37 HOAL         2.2260    -3.4360    -1.2820 ho         1 SO8       0.411000
     38 HAM         -0.1050    -4.3860    -1.0170 h1         1 SO8       0.092700
     39 HAN         -0.2890    -4.7830     1.3700 h1         1 SO8       0.027200
     40 HANA        -1.1410    -3.2640     1.6350 h1         1 SO8       0.027200
     41 HOAO        -2.6380    -4.9720     1.3720 ho         1 SO8       0.409000
     42 HAQ         -0.5400    -0.8750    -1.7910 h2         1 SO8       0.106700
     43 HD1          6.7790     3.3710    -1.0790 hc         1 SO8       0.030367
     44 HD1A         6.9410     1.9470    -0.0570 hc         1 SO8       0.030367
     45 HD1B         6.4920     1.7730    -1.7500 hc         1 SO8       0.030367
     46 HG1          4.3220     2.9980    -1.2680 hc         1 SO8       0.048200
     47 HG1A         4.8050     3.1620     0.4070 hc         1 SO8       0.048200
     48 HG2          5.0030     0.2040    -1.9230 hc         1 SO8       0.039033
     49 HG2A         3.6660    -0.6700    -1.2040 hc         1 SO8       0.039033
     50 HG2B         3.3610     0.8110    -2.1040 hc         1 SO8       0.039033
     51 CD1          6.3510     2.3910    -0.8620 c3         1 SO8      -0.087100
     52 H2          -1.0340     3.6610    -1.0740 h5         1 SO8       0.046100
@<TRIPOS>BOND
     1     1     3 2   
     2     1    14 1   
     3     1    16 1   
     4     2    14 1   
     5     2    27 1   
     6     2    28 1   
     7     4     5 ar  
     8     4     9 ar  
     9     5     6 ar  
    10     5    52 1   
    11     6     7 ar  
    12     7     8 ar  
    13     7    13 1   
    14     8     9 ar  
    15     8    11 1   
    16     9    10 1   
    17    10    29 1   
    18    10    30 1   
    19    11    12 2   
    20    12    13 1   
    21    12    31 1   
    22    13    24 1   
    23    14    15 1   
    24    14    32 1   
    25    15    25 1   
    26    15    26 1   
    27    15    33 1   
    28    16    17 1   
    29    16    34 1   
    30    17    18 1   
    31    17    24 1   
    32    17    35 1   
    33    18    19 1   
    34    18    20 1   
    35    18    36 1   
    36    19    37 1   
    37    20    21 1   
    38    20    23 1   
    39    20    38 1   
    40    21    22 1   
    41    21    39 1   
    42    21    40 1   
    43    22    41 1   
    44    23    24 1   
    45    24    42 1   
    46    25    46 1   
    47    25    47 1   
    48    25    51 1   
    49    26    48 1   
    50    26    49 1   
    51    26    50 1   
    52    43    51 1   
    53    44    51 1   
    54    45    51 1   
@<TRIPOS>SUBSTRUCTURE
     1 SO8         1 TEMP              0 ****  ****    0 ROOT
