@<TRIPOS>MOLECULE
SO8
   52    54     1     0     0
SMALL
No Charge or Current Charge


@<TRIPOS>ATOM
      1 C            1.6570     0.4240     0.1130 c          1 SO8       0.563100
      2 N            2.1550     2.8960    -0.3970 n8         1 SO8      -0.991200
      3 O            1.1720     0.5080     1.2360 o          1 SO8      -0.626100
      4 N1          -2.7920     3.4900     0.5500 nb         1 SO8      -0.303000
      5 C2          -1.8710     3.1420    -0.3780 ca         1 SO8       0.188900
      6 N3          -1.4800     1.8860    -0.7000 nb         1 SO8      -0.255000
      7 C4          -2.0790     0.8890    -0.0160 ca         1 SO8       0.119500
      8 C5          -3.0290     1.1340     0.9430 ca         1 SO8      -0.094600
      9 C6          -3.3690     2.4770     1.2130 ca         1 SO8       0.455900
     10 N6          -4.3010     2.8240     2.1400 nv         1 SO8      -1.060900
     11 N7          -3.5280    -0.0360     1.5080 nc         1 SO8      -0.559100
     12 C8          -2.8330    -0.9820     0.8470 cd         1 SO8       0.423700
     13 N9          -1.9250    -0.4690    -0.0960 na         1 SO8      -0.303300
     14 CA           2.6750     1.4860    -0.4480 c3         1 SO8       0.097500
     15 CB           4.0820     1.3750     0.2370 c3         1 SO8      -0.047700
     16 NAI          1.3250    -0.5880    -0.7690 ns         1 SO8      -0.479900
     17 CAJ          0.3570    -1.6200    -0.3470 c5         1 SO8       0.080700
     18 CAK          0.6870    -2.9030    -1.1720 c5         1 SO8       0.134300
     19 OAL          1.1270    -2.6180    -2.5190 oh         1 SO8      -0.693000
     20 CAM         -0.7240    -3.5770    -1.1230 c5         1 SO8       0.122300
     21 CAN         -1.0360    -4.2900     0.2300 c3         1 SO8       0.141600
     22 OAO         -2.2680    -5.0280     0.1560 oh         1 SO8      -0.706000
     23 OAP         -1.6540    -2.4790    -1.3390 os         1 SO8      -0.424000
     24 CAQ         -1.0270    -1.2280    -0.9580 c5         1 SO8       0.305300
     25 CG1          5.1300     2.3270    -0.4220 c3         1 SO8      -0.072400
     26 CG2          4.5950    -0.0930     0.2640 c3         1 SO8      -0.098100
     27 HN           1.2540     2.9420    -0.8890 hn         1 SO8       0.407000
     28 HNA          1.8970     3.1120     0.5740 hn         1 SO8       0.407000
     29 HN6         -4.7130     3.7510     2.0760 hn         1 SO8       0.509000
     30 HN6A        -4.9030     2.0810     2.4880 hn         1 SO8       0.509000
     31 H8          -2.9360    -2.0510     0.9970 h5         1 SO8       0.084800
     32 HA           2.8190     1.2420    -1.5110 h1         1 SO8       0.066700
     33 HB           3.9600     1.6900     1.2810 hc         1 SO8       0.059700
     34 HNAI         1.7770    -0.6050    -1.6780 hn         1 SO8       0.351500
     35 HAJ          0.3180    -1.8030     0.7350 h1         1 SO8       0.070700
     36 HAK          1.4410    -3.5130    -0.6520 h1         1 SO8       0.078700
     37 HOAL         1.3380    -3.4790    -2.9520 ho         1 SO8       0.510000
     38 HAM         -0.8400    -4.3140    -1.9300 h1         1 SO8       0.092700
     39 HAN         -0.2080    -4.9750     0.4580 h1         1 SO8       0.027200
     40 HANA        -1.0830    -3.5510     1.0400 h1         1 SO8       0.027200
     41 HOAO        -2.3830    -5.4930     1.0180 ho         1 SO8       0.508000
     42 HAQ         -0.8790    -0.6230    -1.8620 h2         1 SO8       0.106700
     43 HD1          7.1220     3.1750    -0.1570 hc         1 SO8       0.030367
     44 HD1A         6.3860     2.5970     1.3510 hc         1 SO8       0.030367
     45 HD1B         7.0500     1.4390     0.1720 hc         1 SO8       0.030367
     46 HG1          5.2790     2.0370    -1.4700 hc         1 SO8       0.048200
     47 HG1A         4.7370     3.3510    -0.4400 hc         1 SO8       0.048200
     48 HG2          5.5480    -0.1720     0.7990 hc         1 SO8       0.039033
     49 HG2A         3.8950    -0.7570     0.7840 hc         1 SO8       0.039033
     50 HG2B         4.7400    -0.4750    -0.7540 hc         1 SO8       0.039033
     51 CD1          6.5040     2.3830     0.2820 c3         1 SO8      -0.087100
     52 H2          -1.3960     3.9560    -0.9250 h5         1 SO8       0.046100
@<TRIPOS>BOND
     1     1     3 2   
     2     1    14 1   
     3     1    16 1   
     4     2    14 1   
     5     2    27 1   
     6     2    28 1   
     7     4     5 ar  
     8     4     9 ar  
     9     5     6 ar  
    10     5    52 1   
    11     6     7 ar  
    12     7     8 ar  
    13     7    13 1   
    14     8     9 ar  
    15     8    11 1   
    16     9    10 1   
    17    10    29 1   
    18    10    30 1   
    19    11    12 2   
    20    12    13 1   
    21    12    31 1   
    22    13    24 1   
    23    14    15 1   
    24    14    32 1   
    25    15    25 1   
    26    15    26 1   
    27    15    33 1   
    28    16    17 1   
    29    16    34 1   
    30    17    18 1   
    31    17    24 1   
    32    17    35 1   
    33    18    19 1   
    34    18    20 1   
    35    18    36 1   
    36    19    37 1   
    37    20    21 1   
    38    20    23 1   
    39    20    38 1   
    40    21    22 1   
    41    21    39 1   
    42    21    40 1   
    43    22    41 1   
    44    23    24 1   
    45    24    42 1   
    46    25    46 1   
    47    25    47 1   
    48    25    51 1   
    49    26    48 1   
    50    26    49 1   
    51    26    50 1   
    52    43    51 1   
    53    44    51 1   
    54    45    51 1   
@<TRIPOS>SUBSTRUCTURE
     1 SO8         1 TEMP              0 ****  ****    0 ROOT
