@<TRIPOS>MOLECULE
SO9
   60    65     1     0     0
SMALL
No Charge or Current Charge


@<TRIPOS>ATOM
      1 C2         -19.1550   -37.7470   -12.1000 c          1 SO9       0.613100
      2 C4         -20.4380   -38.6080   -11.9100 c5         1 SO9      -0.168700
      3 C6         -20.3130   -39.9760   -12.6820 c5         1 SO9      -0.034500
      4 C8         -21.6910   -40.6170   -12.6510 c2         1 SO9      -0.241200
      5 C12        -19.5880   -40.8580   -11.6300 c5         1 SO9      -0.079400
      6 C16        -19.6220   -39.1770    -8.2710 ca         1 SO9       0.467900
      7 C18        -20.7550   -39.6250    -6.3310 ca         1 SO9       0.423900
      8 C21        -18.4720   -39.7050    -7.6910 ca         1 SO9      -0.380000
      9 C23        -16.2780   -40.6090    -6.8820 cc         1 SO9      -0.132400
     10 C24        -17.3000   -40.6820    -5.9510 cd         1 SO9      -0.305800
     11 C27        -24.0900   -38.8110    -4.8550 ca         1 SO9      -0.140000
     12 C32        -27.1970   -36.0070    -5.2570 c5         1 SO9       0.102000
     13 C33        -28.5980   -35.3560    -5.1910 c5         1 SO9      -0.094400
     14 C34        -28.8190   -35.2930    -3.6610 c5         1 SO9      -0.094400
     15 C35        -28.3390   -36.6960    -3.1990 c5         1 SO9       0.102000
     16 C36        -25.9800   -38.7270    -6.3810 ca         1 SO9      -0.124000
     17 C37        -25.1640   -39.2220    -7.4100 ca         1 SO9      -0.092000
     18 C38        -23.8100   -39.5000    -7.1630 ca         1 SO9      -0.131000
     19 O1         -18.0080   -38.0640   -11.8240 o          1 SO9      -0.632100
     20 N3         -19.3840   -36.5330   -12.6440 nt         1 SO9      -0.597000
     21 C9         -21.9210   -41.0290   -11.4020 c2         1 SO9      -0.210200
     22 C10        -20.7040   -40.6630   -10.5670 c5         1 SO9      -0.065500
     23 C13        -20.7390   -39.0890   -10.4210 c5         1 SO9       0.255500
     24 N15        -19.5830   -38.6940    -9.5680 nu         1 SO9      -0.929100
     25 N17        -20.7780   -39.1250    -7.5830 nb         1 SO9      -0.328000
     26 N19        -19.6920   -40.1430    -5.6860 nb         1 SO9      -0.258000
     27 C20        -18.5610   -40.1690    -6.4050 ca         1 SO9       0.204800
     28 S22        -16.8480   -39.8770    -8.4130 ss         1 SO9       0.087400
     29 N25        -21.9250   -39.5790    -5.5870 nu         1 SO9      -0.937900
     30 C26        -23.2610   -39.2890    -5.8840 ca         1 SO9       0.327000
     31 C28        -25.4480   -38.4960    -5.0930 ca         1 SO9      -0.100600
     32 C29        -26.3100   -37.9950    -3.9510 c          1 SO9       0.609700
     33 O30        -26.1740   -38.4560    -2.8220 o          1 SO9      -0.605100
     34 N31        -27.3340   -37.0630    -4.2270 n          1 SO9      -0.415800
     35 H1         -21.2940   -38.0380   -12.2890 hc         1 SO9       0.064700
     36 H2         -19.8420   -39.9350   -13.6720 hc         1 SO9       0.078700
     37 H3         -22.3760   -40.7310   -13.4950 ha         1 SO9       0.194000
     38 H5         -19.4880   -41.9020   -11.9510 hc         1 SO9       0.068200
     39 H6         -18.5950   -40.5090   -11.3260 hc         1 SO9       0.068200
     40 H7         -15.2430   -40.9230    -6.7970 h4         1 SO9       0.218000
     41 H8         -17.1610   -41.0960    -4.9560 ha         1 SO9       0.218000
     42 H10        -26.9840   -36.3850    -6.2630 h1         1 SO9       0.054450
     43 H11        -26.4060   -35.2960    -4.9820 h1         1 SO9       0.054450
     44 H12        -28.6250   -34.3690    -5.6660 hc         1 SO9       0.053950
     45 H13        -29.3530   -35.9820    -5.6810 hc         1 SO9       0.053950
     46 H14        -28.2080   -34.5020    -3.2090 hc         1 SO9       0.053950
     47 H15        -29.8620   -35.0950    -3.3880 hc         1 SO9       0.053950
     48 H16        -29.1650   -37.4190    -3.2040 h1         1 SO9       0.054450
     49 H17        -27.9180   -36.6620    -2.1850 h1         1 SO9       0.054450
     50 H18        -27.0360   -38.5550    -6.5800 ha         1 SO9       0.119000
     51 H19        -25.5850   -39.4060    -8.3970 ha         1 SO9       0.109000
     52 H20        -23.2010   -39.9070    -7.9640 ha         1 SO9       0.146000
     53 H21        -18.6050   -35.9120   -12.8040 hn         1 SO9       0.319500
     54 H22        -20.3230   -36.2510   -12.8810 hn         1 SO9       0.319500
     55 H23        -22.8260   -41.5340   -11.0530 ha         1 SO9       0.197000
     56 H25        -20.5930   -41.2500    -9.6480 hc         1 SO9       0.095700
     57 H26        -21.7080   -38.7210   -10.0490 h1         1 SO9       0.085700
     58 H27        -18.6510   -38.7210    -9.9850 hn         1 SO9       0.534000
     59 H28        -21.7500   -39.7340    -4.5960 hn         1 SO9       0.511000
     60 H9         -23.6740   -38.6600    -3.8630 ha         1 SO9       0.122000
@<TRIPOS>BOND
     1     1     2 1   
     2     1    19 2   
     3     1    20 1   
     4     2     3 1   
     5     2    23 1   
     6     2    35 1   
     7     3     4 1   
     8     3     5 1   
     9     3    36 1   
    10     4    21 2   
    11     4    37 1   
    12     5    22 1   
    13     5    38 1   
    14     5    39 1   
    15     6     8 ar  
    16     6    24 1   
    17     6    25 ar  
    18     7    25 ar  
    19     7    26 ar  
    20     7    29 1   
    21     8    27 ar  
    22     8    28 1   
    23     9    10 2   
    24     9    28 1   
    25     9    40 1   
    26    10    27 1   
    27    10    41 1   
    28    11    30 ar  
    29    11    31 ar  
    30    11    60 1   
    31    12    13 1   
    32    12    34 1   
    33    12    42 1   
    34    12    43 1   
    35    13    14 1   
    36    13    44 1   
    37    13    45 1   
    38    14    15 1   
    39    14    46 1   
    40    14    47 1   
    41    15    34 1   
    42    15    48 1   
    43    15    49 1   
    44    16    17 ar  
    45    16    31 ar  
    46    16    50 1   
    47    17    18 ar  
    48    17    51 1   
    49    18    30 ar  
    50    18    52 1   
    51    20    53 1   
    52    20    54 1   
    53    21    22 1   
    54    21    55 1   
    55    22    23 1   
    56    22    56 1   
    57    23    24 1   
    58    23    57 1   
    59    24    58 1   
    60    26    27 ar  
    61    29    30 1   
    62    29    59 1   
    63    31    32 1   
    64    32    33 2   
    65    32    34 1   
@<TRIPOS>SUBSTRUCTURE
     1 SO9         1 TEMP              0 ****  ****    0 ROOT
