@<TRIPOS>MOLECULE
SO9
   60    65     1     0     0
SMALL
abcg2


@<TRIPOS>ATOM
      1 C2         -19.0760   -38.2400   -12.1280 c          1 SO9       0.613100
      2 C4         -20.4860   -38.6630   -11.7650 c5         1 SO9      -0.168700
      3 C6         -20.9410   -39.8980   -12.6410 c5         1 SO9      -0.034500
      4 C8         -22.4440   -39.9840   -12.4390 c2         1 SO9      -0.241200
      5 C12        -20.4680   -41.0720   -11.7630 c5         1 SO9      -0.079400
      6 C16        -19.5220   -39.3260    -8.1670 ca         1 SO9       0.467900
      7 C18        -20.7170   -39.4430    -6.2020 ca         1 SO9       0.423900
      8 C21        -18.3370   -39.4110    -7.4010 ca         1 SO9      -0.380000
      9 C23        -16.1580   -39.5460    -6.2550 cc         1 SO9      -0.132400
     10 C24        -17.1840   -39.5910    -5.3670 cd         1 SO9      -0.305800
     11 C27        -24.2350   -39.0280    -5.1120 ca         1 SO9      -0.140000
     12 C32        -26.7900   -36.2650    -5.3410 c5         1 SO9       0.102000
     13 C33        -27.8790   -35.2310    -5.0630 c5         1 SO9      -0.094400
     14 C34        -28.2440   -35.4880    -3.5980 c5         1 SO9      -0.094400
     15 C35        -28.1830   -37.0110    -3.4800 c5         1 SO9       0.102000
     16 C36        -25.9220   -39.0820    -6.8340 ca         1 SO9      -0.124000
     17 C37        -24.9390   -39.4130    -7.7570 ca         1 SO9      -0.092000
     18 C38        -23.6060   -39.5410    -7.3820 ca         1 SO9      -0.131000
     19 O1         -18.0760   -38.9070   -11.8380 o          1 SO9      -0.632100
     20 N3         -18.9850   -37.1010   -12.8320 nt         1 SO9      -0.597000
     21 C9         -22.6570   -40.4190   -11.1950 c2         1 SO9      -0.210200
     22 C10        -21.3030   -40.6290   -10.5480 c5         1 SO9      -0.065500
     23 C13        -20.7140   -39.1920   -10.3070 c5         1 SO9       0.255500
     24 N15        -19.5060   -39.2110    -9.5060 nu         1 SO9      -0.929100
     25 N17        -20.7020   -39.3470    -7.5370 nb         1 SO9      -0.328000
     26 N19        -19.6620   -39.5320    -5.3870 nb         1 SO9      -0.258000
     27 C20        -18.4640   -39.5140    -6.0100 ca         1 SO9       0.204800
     28 S22        -16.6750   -39.4060    -7.9020 ss         1 SO9       0.087400
     29 N25        -21.9350   -39.4470    -5.5580 nu         1 SO9      -0.937900
     30 C26        -23.2360   -39.3360    -6.0460 ca         1 SO9       0.327000
     31 C28        -25.5600   -38.8960    -5.5000 ca         1 SO9      -0.100600
     32 C29        -26.5980   -38.6080    -4.4540 c          1 SO9       0.609700
     33 O30        -26.8960   -39.4720    -3.6170 o          1 SO9      -0.605100
     34 N31        -27.1740   -37.3980    -4.4780 n          1 SO9      -0.415800
     35 H1         -21.1510   -37.8240   -11.9510 hc         1 SO9       0.064700
     36 H2         -20.5890   -39.8550   -13.6680 hc         1 SO9       0.078700
     37 H3         -23.1780   -39.6330   -13.1520 ha         1 SO9       0.194000
     38 H5         -20.7770   -42.0390   -12.1590 hc         1 SO9       0.068200
     39 H6         -19.3940   -41.0690   -11.5790 hc         1 SO9       0.068200
     40 H7         -15.1010   -39.5840    -6.0430 h4         1 SO9       0.218000
     41 H8         -17.0570   -39.6750    -4.2970 ha         1 SO9       0.218000
     42 H10        -26.7460   -36.5630    -6.3850 h1         1 SO9       0.054450
     43 H11        -25.8050   -35.8920    -5.0470 h1         1 SO9       0.054450
     44 H12        -27.5340   -34.2150    -5.2500 hc         1 SO9       0.053950
     45 H13        -28.7430   -35.4220    -5.7040 hc         1 SO9       0.053950
     46 H14        -27.4980   -35.0350    -2.9420 hc         1 SO9       0.053950
     47 H15        -29.2220   -35.0950    -3.3240 hc         1 SO9       0.053950
     48 H16        -29.1420   -37.4750    -3.7280 h1         1 SO9       0.054450
     49 H17        -27.8860   -37.3580    -2.4920 h1         1 SO9       0.054450
     50 H18        -26.9550   -38.9760    -7.1400 ha         1 SO9       0.119000
     51 H19        -25.2070   -39.5770    -8.7930 ha         1 SO9       0.109000
     52 H20        -22.8550   -39.7890    -8.1110 ha         1 SO9       0.146000
     53 H21        -18.0820   -36.7880   -13.1570 hn         1 SO9       0.319500
     54 H22        -19.7970   -36.5610   -13.0790 hn         1 SO9       0.319500
     55 H23        -23.6050   -40.4990   -10.6810 ha         1 SO9       0.197000
     56 H25        -21.2780   -41.2470    -9.6560 hc         1 SO9       0.095700
     57 H26        -21.4390   -38.5670    -9.7930 h1         1 SO9       0.085700
     58 H27        -18.6300   -39.2820   -10.0080 hn         1 SO9       0.534000
     59 H28        -21.8430   -39.4260    -4.5540 hn         1 SO9       0.511000
     60 H9         -23.9630   -38.8830    -4.0720 ha         1 SO9       0.122000
@<TRIPOS>BOND
     1     1     2 1   
     2     1    19 2   
     3     1    20 1   
     4     2     3 1   
     5     2    23 1   
     6     2    35 1   
     7     3     4 1   
     8     3     5 1   
     9     3    36 1   
    10     4    21 2   
    11     4    37 1   
    12     5    22 1   
    13     5    38 1   
    14     5    39 1   
    15     6     8 ar  
    16     6    24 1   
    17     6    25 ar  
    18     7    25 ar  
    19     7    26 ar  
    20     7    29 1   
    21     8    27 ar  
    22     8    28 1   
    23     9    10 2   
    24     9    28 1   
    25     9    40 1   
    26    10    27 1   
    27    10    41 1   
    28    11    30 ar  
    29    11    31 ar  
    30    11    60 1   
    31    12    13 1   
    32    12    34 1   
    33    12    42 1   
    34    12    43 1   
    35    13    14 1   
    36    13    44 1   
    37    13    45 1   
    38    14    15 1   
    39    14    46 1   
    40    14    47 1   
    41    15    34 1   
    42    15    48 1   
    43    15    49 1   
    44    16    17 ar  
    45    16    31 ar  
    46    16    50 1   
    47    17    18 ar  
    48    17    51 1   
    49    18    30 ar  
    50    18    52 1   
    51    20    53 1   
    52    20    54 1   
    53    21    22 1   
    54    21    55 1   
    55    22    23 1   
    56    22    56 1   
    57    23    24 1   
    58    23    57 1   
    59    24    58 1   
    60    26    27 ar  
    61    29    30 1   
    62    29    59 1   
    63    31    32 1   
    64    32    33 2   
    65    32    34 1   
@<TRIPOS>SUBSTRUCTURE
     1 SO9         1 TEMP              0 ****  ****    0 ROOT
