@<TRIPOS>MOLECULE
SOA
   18    18     1     0     0
SMALL
bcc


@<TRIPOS>ATOM
      1 C4          -0.0340    -0.0240    -0.4670 ca         1 SOA      -0.141300
      2 C3           0.9390    -0.0360     0.5500 ca         1 SOA       0.140600
      3 C2           0.5270    -0.0320     1.8840 ca         1 SOA      -0.197000
      4 C1          -0.8200    -0.0130     2.2130 ca         1 SOA      -0.090000
      5 C5          -1.3770     0.0060    -0.1170 ca         1 SOA      -0.067000
      6 C6          -1.7810     0.0100     1.2140 ca         1 SOA      -0.172000
      7 N11          2.2850    -0.1190     0.2320 nv         1 SOA      -0.818200
      8 C12          0.4210    -0.0550    -1.9000 c3         1 SOA       0.192700
      9 O1          -0.6800    -0.1260    -2.7660 oh         1 SOA      -0.593800
     10 H2           1.2750    -0.0430     2.6690 ha         1 SOA       0.127000
     11 H1          -1.1130    -0.0100     3.2560 ha         1 SOA       0.128000
     12 H5          -2.1290     0.0200    -0.8940 ha         1 SOA       0.146000
     13 H6          -2.8340     0.0300     1.4610 ha         1 SOA       0.132000
     14 HNB1         2.9060     0.1050     0.9940 hn         1 SOA       0.383300
     15 HNB2         2.5750     0.3640    -0.6040 hn         1 SOA       0.383300
     16 H121         1.0270     0.8420    -2.1060 h1         1 SOA       0.020200
     17 H122         1.0970    -0.9130    -2.0340 h1         1 SOA       0.020200
     18 HO1         -0.3480    -0.1250    -3.6680 ho         1 SOA       0.406000
@<TRIPOS>BOND
     1     1     2 ar  
     2     1     5 ar  
     3     1     8 1   
     4     2     3 ar  
     5     2     7 1   
     6     3     4 ar  
     7     3    10 1   
     8     4     6 ar  
     9     4    11 1   
    10     5     6 ar  
    11     5    12 1   
    12     6    13 1   
    13     7    14 1   
    14     7    15 1   
    15     8     9 1   
    16     8    16 1   
    17     8    17 1   
    18     9    18 1   
@<TRIPOS>SUBSTRUCTURE
     1 SOA         1 TEMP              0 ****  ****    0 ROOT
