@<TRIPOS>MOLECULE
SOA
   18    18     1     0     0
SMALL
No Charge or Current Charge


@<TRIPOS>ATOM
      1 C4          -0.0650     0.1870    -0.4610 ca         1 SOA      -0.141300
      2 C3           0.9050    -0.1130     0.5240 ca         1 SOA       0.279000
      3 C2           0.5290    -0.2020     1.8740 ca         1 SOA      -0.179000
      4 C1          -0.8060    -0.0000     2.2580 ca         1 SOA      -0.072000
      5 C5          -1.4060     0.3860    -0.0680 ca         1 SOA      -0.049000
      6 C6          -1.7740     0.2930     1.2850 ca         1 SOA      -0.154000
      7 N11          2.2200    -0.3290     0.1980 nv         1 SOA      -1.067000
      8 C12          0.2920     0.3170    -1.9390 c3         1 SOA       0.215900
      9 O1           0.2220    -0.9590    -2.5850 oh         1 SOA      -0.656000
     10 H2           1.2730    -0.4310     2.6330 ha         1 SOA       0.109000
     11 H1          -1.0900    -0.0720     3.3060 ha         1 SOA       0.110000
     12 H5          -2.1640     0.6150    -0.8130 ha         1 SOA       0.128000
     13 H6          -2.8100     0.4490     1.5780 ha         1 SOA       0.114000
     14 HNB1         2.8480    -0.7090     0.9030 hn         1 SOA       0.438500
     15 HNB2         2.4580    -0.5120    -0.7740 hn         1 SOA       0.438500
     16 H121        -0.4080     1.0160    -2.4170 h1         1 SOA       0.020200
     17 H122         1.2950     0.7480    -2.0490 h1         1 SOA       0.020200
     18 HO1          0.4170    -0.8040    -3.5350 ho         1 SOA       0.445000
@<TRIPOS>BOND
     1     1     2 ar  
     2     1     5 ar  
     3     1     8 1   
     4     2     3 ar  
     5     2     7 1   
     6     3     4 ar  
     7     3    10 1   
     8     4     6 ar  
     9     4    11 1   
    10     5     6 ar  
    11     5    12 1   
    12     6    13 1   
    13     7    14 1   
    14     7    15 1   
    15     8     9 1   
    16     8    16 1   
    17     8    17 1   
    18     9    18 1   
@<TRIPOS>SUBSTRUCTURE
     1 SOA         1 TEMP              0 ****  ****    0 ROOT
