@<TRIPOS>MOLECULE
SOC
   15    14     1     0     0
SMALL
No Charge or Current Charge


@<TRIPOS>ATOM
      1 N           62.1460    -8.4640    21.3620 n8         1 SOC      -0.902800
      2 CA          63.2270    -8.0360    22.3420 c3         1 SOC       0.015500
      3 CB          63.8470    -9.2510    23.0900 c3         1 SOC       0.162400
      4 SE          62.6860   -10.0820    24.2370 s6         1 SOC       0.248000
      5 OD1         63.4350   -11.0460    25.0570 o          1 SOC      -0.505800
      6 OD2         61.5010   -10.5430    23.4950 o          1 SOC      -0.505800
      7 C           64.3840    -7.1130    21.7700 c          1 SOC       0.939600
      8 O           65.4650    -7.6170    21.4770 o          1 SOC      -0.808300
      9 OXT         64.1650    -5.9110    21.6580 o          1 SOC      -0.808300
     10 H           61.5920    -7.6460    21.0820 hn         1 SOC       0.353800
     11 H2          61.4790    -9.0770    21.8500 hn         1 SOC       0.353800
     12 HA          62.7170    -7.4300    23.1020 h1         1 SOC       0.009700
     13 HB2         64.2100   -10.0010    22.3780 h1         1 SOC       0.105200
     14 HB3         64.6920    -8.9190    23.7060 h1         1 SOC       0.105200
     15 HE          62.3270    -9.0060    25.0290 hs         1 SOC       0.237800
@<TRIPOS>BOND
     1     1     2 1   
     2     1    10 1   
     3     1    11 1   
     4     2     3 1   
     5     2     7 1   
     6     2    12 1   
     7     3     4 1   
     8     3    13 1   
     9     3    14 1   
    10     4     5 2   
    11     4     6 2   
    12     4    15 1   
    13     7     8 1   
    14     7     9 1   
@<TRIPOS>SUBSTRUCTURE
     1 SOC         1 TEMP              0 ****  ****    0 ROOT
