@<TRIPOS>MOLECULE
SOC
   15    14     1     0     0
SMALL
bcc


@<TRIPOS>ATOM
      1 N           62.1520    -8.3840    21.4740 n8         1 SOC      -0.902800
      2 CA          63.1750    -8.0090    22.4260 c3         1 SOC       0.015500
      3 CB          63.8580    -9.2420    23.0050 c3         1 SOC       0.162400
      4 SE          62.7480   -10.2110    24.2490 s6         1 SOC       0.248000
      5 OD1         63.5120   -11.5420    24.7270 o          1 SOC      -0.505800
      6 OD2         61.2460   -10.3900    23.7050 o          1 SOC      -0.505800
      7 C           64.2580    -7.0960    21.7640 c          1 SOC       0.939600
      8 O           65.3290    -6.9780    22.3840 o          1 SOC      -0.808300
      9 OXT         63.9320    -6.5370    20.7030 o          1 SOC      -0.808300
     10 H           62.0450    -7.6220    20.8190 hn         1 SOC       0.353800
     11 H2          61.2640    -8.5220    21.9350 hn         1 SOC       0.353800
     12 HA          62.7840    -7.4020    23.2610 h1         1 SOC       0.009700
     13 HB2         64.1240    -9.9540    22.2200 h1         1 SOC       0.105200
     14 HB3         64.7500    -8.9830    23.5770 h1         1 SOC       0.105200
     15 HE          62.6970    -9.2680    25.3860 hs         1 SOC       0.237800
@<TRIPOS>BOND
     1     1     2 1   
     2     1    10 1   
     3     1    11 1   
     4     2     3 1   
     5     2     7 1   
     6     2    12 1   
     7     3     4 1   
     8     3    13 1   
     9     3    14 1   
    10     4     5 2   
    11     4     6 2   
    12     4    15 1   
    13     7     8 1   
    14     7     9 1   
@<TRIPOS>SUBSTRUCTURE
     1 SOC         1 TEMP              0 ****  ****    0 ROOT
