@<TRIPOS>MOLECULE
SOF
   63    66     1     0     0
SMALL
No Charge or Current Charge


@<TRIPOS>ATOM
      1 O01          1.8400    -1.9260    -0.3440 os         1 SOF      -0.309100
      2 C02          0.6610    -1.5660     0.4130 c3         1 SOF       0.077600
      3 C03         -0.5420    -2.5020     0.1220 c          1 SOF       0.606100
      4 O04         -0.4580    -3.4150    -0.6950 o          1 SOF      -0.565100
      5 N05         -1.7460    -2.3010     0.8470 n          1 SOF      -0.412800
      6 C06         -2.9590    -3.1280     0.6160 c6         1 SOF       0.097000
      7 C07         -4.0740    -2.2790    -0.0370 c6         1 SOF      -0.116400
      8 C08         -4.4020    -1.0390     0.8390 c6         1 SOF       0.197500
      9 N09         -5.5350    -0.2380     0.2770 n3         1 SOF      -0.733600
     10 C10         -6.0850     0.7600     1.2500 c6         1 SOF       0.139300
     11 C11         -7.3270     1.5210     0.6760 c6         1 SOF       0.164300
     12 N12         -7.0380     2.2000    -0.6280 n3         1 SOF      -0.717600
     13 C13         -6.5190     1.1740    -1.5930 c6         1 SOF       0.164300
     14 C14         -5.2660     0.4090    -1.0520 c6         1 SOF       0.139300
     15 C15         -6.1710     3.3980    -0.4720 c3         1 SOF       0.168800
     16 C16         -6.0100     4.2430    -1.7510 c3         1 SOF      -0.090100
     17 C17         -3.1020    -0.2210     1.1020 c6         1 SOF      -0.116400
     18 C18         -2.0080    -1.1230     1.7200 c6         1 SOF       0.097000
     19 C19          3.0230    -1.2240    -0.2390 ca         1 SOF       0.142100
     20 C20          4.1110    -1.6510    -1.0150 ca         1 SOF      -0.171000
     21 C21          5.3420    -0.9750    -0.9510 ca         1 SOF      -0.063000
     22 C22          5.5150     0.1490    -0.1050 cp         1 SOF      -0.071000
     23 C23          4.4060     0.5680     0.6730 ca         1 SOF      -0.063000
     24 C24          3.1740    -0.1070     0.6090 ca         1 SOF      -0.171000
     25 C25          6.8270     0.8700    -0.0350 cp         1 SOF      -0.026000
     26 C26          7.2880     1.4360     1.1810 ca         1 SOF      -0.103000
     27 C27          8.5190     2.1130     1.2470 ca         1 SOF      -0.110000
     28 C28          9.3150     2.2390     0.0980 ca         1 SOF      -0.109000
     29 C29          8.8790     1.6870    -1.1170 ca         1 SOF      -0.110000
     30 C30          7.6490     1.0100    -1.1820 ca         1 SOF      -0.103000
     31 H021         0.8670    -1.6190     1.4900 h1         1 SOF       0.049200
     32 H022         0.3490    -0.5430     0.1680 h1         1 SOF       0.049200
     33 H061        -2.7350    -3.9940    -0.0230 h1         1 SOF       0.056950
     34 H062        -3.3140    -3.5230     1.5790 h1         1 SOF       0.056950
     35 H181        -2.3470    -1.4810     2.7030 h1         1 SOF       0.056950
     36 H182        -1.1030    -0.5280     1.8960 h1         1 SOF       0.056950
     37 H071        -3.7400    -1.9750    -1.0370 hc         1 SOF       0.055700
     38 H072        -4.9750    -2.8920    -0.1730 hc         1 SOF       0.055700
     39 H08         -4.7280    -1.4340     1.8130 h1         1 SOF       0.051700
     40 H171        -2.7200     0.2110     0.1680 hc         1 SOF       0.055700
     41 H172        -3.2980     0.6160     1.7840 hc         1 SOF       0.055700
     42 H101        -6.3840     0.2560     2.1800 h1         1 SOF       0.032950
     43 H102        -5.3200     1.5010     1.5210 h1         1 SOF       0.032950
     44 H141        -4.4310     1.1190    -0.9770 h1         1 SOF       0.032950
     45 H142        -4.9820    -0.3420    -1.8020 h1         1 SOF       0.032950
     46 H111        -8.1410     0.7940     0.5440 h1         1 SOF       0.058450
     47 H112        -7.6780     2.2490     1.4230 h1         1 SOF       0.058450
     48 H131        -7.3040     0.4310    -1.7950 h1         1 SOF       0.058450
     49 H132        -6.2750     1.6250    -2.5650 h1         1 SOF       0.058450
     50 HA1         -6.6030     4.0520     0.2980 h1         1 SOF       0.026200
     51 HB2         -5.1710     3.1110    -0.1180 h1         1 SOF       0.026200
     52 H161        -5.4390     3.7060    -2.5160 hc         1 SOF       0.037033
     53 H162        -6.9900     4.5110    -2.1640 hc         1 SOF       0.037033
     54 H163        -5.4710     5.1700    -1.5220 hc         1 SOF       0.037033
     55 H20          4.0010    -2.5130    -1.6670 ha         1 SOF       0.122500
     56 H24          2.3520     0.2530     1.2210 ha         1 SOF       0.122500
     57 H21          6.1720    -1.3370    -1.5530 ha         1 SOF       0.115500
     58 H23          4.4960     1.4340     1.3230 ha         1 SOF       0.115500
     59 H26          6.6940     1.3390     2.0860 ha         1 SOF       0.113000
     60 H30          7.3250     0.6020    -2.1360 ha         1 SOF       0.113000
     61 H27          8.8560     2.5370     2.1910 ha         1 SOF       0.112000
     62 H28         10.2670     2.7620     0.1490 ha         1 SOF       0.112000
     63 H29          9.4930     1.7860    -2.0100 ha         1 SOF       0.112000
@<TRIPOS>BOND
     1     1     2 1   
     2     1    19 1   
     3     2     3 1   
     4     2    31 1   
     5     2    32 1   
     6     3     4 2   
     7     3     5 1   
     8     5     6 1   
     9     5    18 1   
    10     6     7 1   
    11     6    33 1   
    12     6    34 1   
    13     7     8 1   
    14     7    37 1   
    15     7    38 1   
    16     8     9 1   
    17     8    17 1   
    18     8    39 1   
    19     9    10 1   
    20     9    14 1   
    21    10    11 1   
    22    10    42 1   
    23    10    43 1   
    24    11    12 1   
    25    11    46 1   
    26    11    47 1   
    27    12    13 1   
    28    12    15 1   
    29    13    14 1   
    30    13    48 1   
    31    13    49 1   
    32    14    44 1   
    33    14    45 1   
    34    15    16 1   
    35    15    50 1   
    36    15    51 1   
    37    16    52 1   
    38    16    53 1   
    39    16    54 1   
    40    17    18 1   
    41    17    40 1   
    42    17    41 1   
    43    18    35 1   
    44    18    36 1   
    45    19    20 ar  
    46    19    24 ar  
    47    20    21 ar  
    48    20    55 1   
    49    21    22 ar  
    50    21    57 1   
    51    22    23 ar  
    52    22    25 1   
    53    23    24 ar  
    54    23    58 1   
    55    24    56 1   
    56    25    26 ar  
    57    25    30 ar  
    58    26    27 ar  
    59    26    59 1   
    60    27    28 ar  
    61    27    61 1   
    62    28    29 ar  
    63    28    62 1   
    64    29    30 ar  
    65    29    63 1   
    66    30    60 1   
@<TRIPOS>SUBSTRUCTURE
     1 SOF         1 TEMP              0 ****  ****    0 ROOT
