@<TRIPOS>MOLECULE
SOF
   63    66     1     0     0
SMALL
bcc


@<TRIPOS>ATOM
      1 O01          1.7010    -1.8440    -0.3400 os         1 SOF      -0.285900
      2 C02          0.6350    -1.4850     0.4960 c3         1 SOF       0.054400
      3 C03         -0.5060    -2.4590     0.2230 c          1 SOF       0.673100
      4 O04         -0.3670    -3.3660    -0.5800 o          1 SOF      -0.565100
      5 N05         -1.6330    -2.2550     0.9310 n          1 SOF      -0.479800
      6 C06         -2.8340    -3.0300     0.6630 c6         1 SOF       0.097000
      7 C07         -3.8880    -2.1590    -0.0130 c6         1 SOF      -0.116400
      8 C08         -4.1920    -0.9160     0.8230 c6         1 SOF       0.197500
      9 N09         -5.2540    -0.1210     0.2280 n3         1 SOF      -0.733600
     10 C10         -5.9250     0.7640     1.1620 c6         1 SOF       0.139300
     11 C11         -7.1830     1.3310     0.5130 c6         1 SOF       0.164300
     12 N12         -6.9310     2.0380    -0.7320 n3         1 SOF      -0.717600
     13 C13         -6.1730     1.1720    -1.6220 c6         1 SOF       0.164300
     14 C14         -4.9110     0.5900    -0.9910 c6         1 SOF       0.139300
     15 C15         -6.3520     3.3610    -0.5410 c3         1 SOF       0.168800
     16 C16         -6.4940     4.2430    -1.7720 c3         1 SOF      -0.090100
     17 C17         -2.8900    -0.1660     1.1390 c6         1 SOF      -0.116400
     18 C18         -1.8800    -1.1070     1.7870 c6         1 SOF       0.097000
     19 C19          2.8600    -1.1650    -0.2190 ca         1 SOF       0.142100
     20 C20          3.9040    -1.5770    -1.0480 ca         1 SOF      -0.189000
     21 C21          5.1300    -0.9450    -0.9900 ca         1 SOF      -0.081000
     22 C22          5.3650     0.1130    -0.1060 cp         1 SOF      -0.071000
     23 C23          4.3110     0.5140     0.7100 ca         1 SOF      -0.081000
     24 C24          3.0700    -0.1070     0.6620 ca         1 SOF      -0.189000
     25 C25          6.6800     0.7790    -0.0400 cp         1 SOF      -0.026000
     26 C26          7.1990     1.2180     1.1800 ca         1 SOF      -0.121000
     27 C27          8.4330     1.8490     1.2430 ca         1 SOF      -0.128000
     28 C28          9.1760     2.0510     0.0880 ca         1 SOF      -0.127000
     29 C29          8.6730     1.6160    -1.1310 ca         1 SOF      -0.128000
     30 C30          7.4380     0.9880    -1.1940 ca         1 SOF      -0.121000
     31 H021         0.9250    -1.5410     1.5520 h1         1 SOF       0.049200
     32 H022         0.3090    -0.4570     0.2970 h1         1 SOF       0.049200
     33 H061        -2.5830    -3.8890     0.0470 h1         1 SOF       0.056950
     34 H062        -3.2140    -3.4100     1.6160 h1         1 SOF       0.056950
     35 H181        -2.2690    -1.4730     2.7420 h1         1 SOF       0.056950
     36 H182        -0.9570    -0.5840     2.0210 h1         1 SOF       0.056950
     37 H071        -3.5230    -1.8820    -1.0060 hc         1 SOF       0.055700
     38 H072        -4.8040    -2.7370    -0.1520 hc         1 SOF       0.055700
     39 H08         -4.5950    -1.2730     1.7810 h1         1 SOF       0.051700
     40 H171        -2.4530     0.2500     0.2260 hc         1 SOF       0.055700
     41 H172        -3.0780     0.6690     1.8190 hc         1 SOF       0.055700
     42 H101        -6.2090     0.1970     2.0520 h1         1 SOF       0.032950
     43 H102        -5.2840     1.5940     1.5050 h1         1 SOF       0.032950
     44 H141        -4.1750     1.3910    -0.8180 h1         1 SOF       0.032950
     45 H142        -4.4540    -0.0960    -1.7070 h1         1 SOF       0.032950
     46 H111        -7.8690     0.5030     0.3060 h1         1 SOF       0.058450
     47 H112        -7.6920     2.0000     1.2110 h1         1 SOF       0.058450
     48 H131        -6.8200     0.3420    -1.9240 h1         1 SOF       0.058450
     49 H132        -5.9090     1.7130    -2.5320 h1         1 SOF       0.058450
     50 HA1         -6.8920     3.8330     0.2840 h1         1 SOF       0.026200
     51 HB2         -5.2970     3.3400    -0.2340 h1         1 SOF       0.026200
     52 H161        -5.9260     3.8650    -2.6240 hc         1 SOF       0.037033
     53 H162        -7.5390     4.3230    -2.0740 hc         1 SOF       0.037033
     54 H163        -6.1240     5.2460    -1.5590 hc         1 SOF       0.037033
     55 H20          3.7500    -2.4030    -1.7310 ha         1 SOF       0.140500
     56 H24          2.2870     0.2570     1.3130 ha         1 SOF       0.140500
     57 H21          5.9280    -1.2980    -1.6320 ha         1 SOF       0.133500
     58 H23          4.4410     1.3450     1.3920 ha         1 SOF       0.133500
     59 H26          6.6420     1.0500     2.0940 ha         1 SOF       0.131000
     60 H30          7.0500     0.6760    -2.1570 ha         1 SOF       0.131000
     61 H27          8.8190     2.1730     2.2010 ha         1 SOF       0.130000
     62 H28         10.1390     2.5430     0.1370 ha         1 SOF       0.130000
     63 H29          9.2400     1.7730    -2.0400 ha         1 SOF       0.130000
@<TRIPOS>BOND
     1     1     2 1   
     2     1    19 1   
     3     2     3 1   
     4     2    31 1   
     5     2    32 1   
     6     3     4 2   
     7     3     5 1   
     8     5     6 1   
     9     5    18 1   
    10     6     7 1   
    11     6    33 1   
    12     6    34 1   
    13     7     8 1   
    14     7    37 1   
    15     7    38 1   
    16     8     9 1   
    17     8    17 1   
    18     8    39 1   
    19     9    10 1   
    20     9    14 1   
    21    10    11 1   
    22    10    42 1   
    23    10    43 1   
    24    11    12 1   
    25    11    46 1   
    26    11    47 1   
    27    12    13 1   
    28    12    15 1   
    29    13    14 1   
    30    13    48 1   
    31    13    49 1   
    32    14    44 1   
    33    14    45 1   
    34    15    16 1   
    35    15    50 1   
    36    15    51 1   
    37    16    52 1   
    38    16    53 1   
    39    16    54 1   
    40    17    18 1   
    41    17    40 1   
    42    17    41 1   
    43    18    35 1   
    44    18    36 1   
    45    19    20 ar  
    46    19    24 ar  
    47    20    21 ar  
    48    20    55 1   
    49    21    22 ar  
    50    21    57 1   
    51    22    23 ar  
    52    22    25 1   
    53    23    24 ar  
    54    23    58 1   
    55    24    56 1   
    56    25    26 ar  
    57    25    30 ar  
    58    26    27 ar  
    59    26    59 1   
    60    27    28 ar  
    61    27    61 1   
    62    28    29 ar  
    63    28    62 1   
    64    29    30 ar  
    65    29    63 1   
    66    30    60 1   
@<TRIPOS>SUBSTRUCTURE
     1 SOF         1 TEMP              0 ****  ****    0 ROOT
