@<TRIPOS>MOLECULE
SOG
   48    48     1     0     0
SMALL
bcc


@<TRIPOS>ATOM
      1 C1          -0.3520     0.0200    -1.9490 c6         1 SOG       0.196200
      2 C2          -1.3610     0.0690    -3.1000 c6         1 SOG       0.100100
      3 C3          -0.7350    -0.5840    -4.3270 c6         1 SOG       0.117100
      4 C4           0.6250     0.0320    -4.6360 c6         1 SOG       0.123100
      5 C5           1.5070    -0.0180    -3.3890 c6         1 SOG       0.137100
      6 C6           2.8380     0.6710    -3.6030 c3         1 SOG       0.149400
      7 C10         -0.6730     0.5430     2.1760 c3         1 SOG      -0.066400
      8 C11          0.0310    -0.1530     3.3360 c3         1 SOG      -0.074400
      9 C12         -0.4550     0.3250     4.6990 c3         1 SOG      -0.074400
     10 C13          0.2390    -0.3780     5.8580 c3         1 SOG      -0.074400
     11 C14         -0.2420     0.0940     7.2240 c3         1 SOG      -0.075400
     12 C7           0.4540    -0.6090     8.3830 c3         1 SOG      -0.075400
     13 C8          -0.0330    -0.1320     9.7450 c3         1 SOG      -0.088100
     14 S1          -1.0390     0.8810    -0.5210 ss         1 SOG      -0.322200
     15 O2          -2.5330    -0.6430    -2.8000 oh         1 SOG      -0.601800
     16 O3          -1.5360    -0.4300    -5.4740 oh         1 SOG      -0.602800
     17 O4           1.2790    -0.6680    -5.6650 oh         1 SOG      -0.596800
     18 O5           0.8510     0.6380    -2.3200 os         1 SOG      -0.373600
     19 O6           3.6260     0.5040    -2.4490 oh         1 SOG      -0.590800
     20 H1          -0.1830    -1.0290    -1.6620 h2         1 SOG       0.061700
     21 H2          -1.5750     1.1240    -3.3310 h1         1 SOG       0.066700
     22 H3          -0.5800    -1.6500    -4.0970 h1         1 SOG       0.052700
     23 H4           0.4750     1.0890    -4.9100 h1         1 SOG       0.056700
     24 H5           1.6880    -1.0750    -3.1300 h1         1 SOG       0.059700
     25 H61          3.3160     0.2350    -4.4860 h1         1 SOG       0.037200
     26 H62          2.6590     1.7330    -3.8260 h1         1 SOG       0.037200
     27 H1'1         0.9050     0.2280     0.7340 h1         1 SOG       0.066200
     28 H1'2        -0.3310    -1.0340     0.7390 h1         1 SOG       0.066200
     29 H2'1        -1.7510     0.3740     2.2480 hc         1 SOG       0.052200
     30 H2'2        -0.5180     1.6230     2.2500 hc         1 SOG       0.052200
     31 H3'1         1.1110     0.0100     3.2560 hc         1 SOG       0.040200
     32 H3'2        -0.1210    -1.2340     3.2560 hc         1 SOG       0.040200
     33 H4'1        -1.5370     0.1690     4.7740 hc         1 SOG       0.039200
     34 H4'2        -0.2980     1.4060     4.7820 hc         1 SOG       0.039200
     35 H5'1         1.3210    -0.2230     5.7810 hc         1 SOG       0.037200
     36 H5'2         0.0830    -1.4590     5.7720 hc         1 SOG       0.037200
     37 H6'1        -1.3240    -0.0620     7.3020 hc         1 SOG       0.037700
     38 H6'2        -0.0860     1.1750     7.3110 hc         1 SOG       0.037700
     39 H7'1         1.5340    -0.4530     8.3040 hc         1 SOG       0.036700
     40 H7'2         0.2980    -1.6890     8.2960 hc         1 SOG       0.036700
     41 H8'1         0.4780    -0.6480    10.5580 hc         1 SOG       0.031700
     42 H8'2         0.1400     0.9390     9.8710 hc         1 SOG       0.031700
     43 H8'3        -1.1040    -0.3060     9.8630 hc         1 SOG       0.031700
     44 HO2         -2.9690    -0.2170    -2.0530 ho         1 SOG       0.428000
     45 HO3         -2.3150    -0.9880    -5.3830 ho         1 SOG       0.426000
     46 HO4          0.7260    -0.6310    -6.4520 ho         1 SOG       0.426000
     47 HO6          4.4950     0.8730    -2.6300 ho         1 SOG       0.405000
     48 C9          -0.1650     0.0400     0.8340 c3         1 SOG       0.023700
@<TRIPOS>BOND
     1     1     2 1   
     2     1    14 1   
     3     1    18 1   
     4     1    20 1   
     5     2     3 1   
     6     2    15 1   
     7     2    21 1   
     8     3     4 1   
     9     3    16 1   
    10     3    22 1   
    11     4     5 1   
    12     4    17 1   
    13     4    23 1   
    14     5     6 1   
    15     5    18 1   
    16     5    24 1   
    17     6    19 1   
    18     6    25 1   
    19     6    26 1   
    20     7     8 1   
    21     7    29 1   
    22     7    30 1   
    23     7    48 1   
    24     8     9 1   
    25     8    31 1   
    26     8    32 1   
    27     9    10 1   
    28     9    33 1   
    29     9    34 1   
    30    10    11 1   
    31    10    35 1   
    32    10    36 1   
    33    11    12 1   
    34    11    37 1   
    35    11    38 1   
    36    12    13 1   
    37    12    39 1   
    38    12    40 1   
    39    13    41 1   
    40    13    42 1   
    41    13    43 1   
    42    14    48 1   
    43    15    44 1   
    44    16    45 1   
    45    17    46 1   
    46    19    47 1   
    47    27    48 1   
    48    28    48 1   
@<TRIPOS>SUBSTRUCTURE
     1 SOG         1 TEMP              0 ****  ****    0 ROOT
