@<TRIPOS>MOLECULE
SOG
   48    48     1     0     0
SMALL
No Charge or Current Charge


@<TRIPOS>ATOM
      1 C1          -0.7170    -0.1800    -2.0730 c6         1 SOG       0.267300
      2 C2          -1.4720     0.1750    -3.3940 c6         1 SOG       0.123300
      3 C3          -0.6750    -0.4010    -4.5990 c6         1 SOG       0.140300
      4 C4           0.7920     0.1220    -4.5770 c6         1 SOG       0.146300
      5 C5           1.4380    -0.2140    -3.1950 c6         1 SOG       0.160300
      6 C6           2.8890     0.3560    -3.0580 c3         1 SOG       0.172600
      7 C10         -0.9260     0.3010     2.1330 c3         1 SOG      -0.066400
      8 C11         -0.0160    -0.1930     3.2790 c3         1 SOG      -0.074400
      9 C12         -0.5310     0.2120     4.6780 c3         1 SOG      -0.074400
     10 C13          0.3800    -0.2820     5.8230 c3         1 SOG      -0.074400
     11 C14         -0.1350     0.1230     7.2220 c3         1 SOG      -0.075400
     12 C7           0.7750    -0.3710     8.3680 c3         1 SOG      -0.075400
     13 C8           0.2620     0.0330     9.7630 c3         1 SOG      -0.088100
     14 S1          -1.5470     0.5200    -0.5770 ss         1 SOG      -0.418000
     15 O2          -2.8270    -0.3340    -3.4030 oh         1 SOG      -0.724000
     16 O3          -1.3220    -0.0570    -5.8370 oh         1 SOG      -0.665000
     17 O4           1.5270    -0.4480    -5.6760 oh         1 SOG      -0.719000
     18 O5           0.6260     0.3400    -2.1260 os         1 SOG      -0.420000
     19 O6           3.4850     0.0990    -1.7690 oh         1 SOG      -0.713000
     20 H1          -0.6870    -1.2730    -1.9420 h2         1 SOG       0.061700
     21 H2          -1.4860     1.2720    -3.4820 h1         1 SOG       0.066700
     22 H3          -0.6480    -1.4960    -4.4900 h1         1 SOG       0.052700
     23 H4           0.7660     1.2180    -4.6800 h1         1 SOG       0.056700
     24 H5           1.4870    -1.3060    -3.0710 h1         1 SOG       0.059700
     25 H61          3.5080    -0.0870    -3.8490 h1         1 SOG       0.037200
     26 H62          2.8480     1.4380    -3.2450 h1         1 SOG       0.037200
     27 H1'1         0.5940     0.3120     0.5790 h1         1 SOG       0.066200
     28 H1'2        -0.3450    -1.1990     0.6720 h1         1 SOG       0.066200
     29 H2'1        -1.9360    -0.1030     2.2720 hc         1 SOG       0.052200
     30 H2'2        -1.0060     1.3940     2.1800 hc         1 SOG       0.052200
     31 H3'1         0.9940     0.2100     3.1360 hc         1 SOG       0.040200
     32 H3'2         0.0650    -1.2860     3.2280 hc         1 SOG       0.040200
     33 H4'1        -1.5410    -0.1910     4.8210 hc         1 SOG       0.039200
     34 H4'2        -0.6120     1.3050     4.7290 hc         1 SOG       0.039200
     35 H5'1         1.3900     0.1210     5.6800 hc         1 SOG       0.037200
     36 H5'2         0.4610    -1.3750     5.7720 hc         1 SOG       0.037200
     37 H6'1        -1.1450    -0.2800     7.3650 hc         1 SOG       0.037700
     38 H6'2        -0.2160     1.2160     7.2730 hc         1 SOG       0.037700
     39 H7'1         1.7860     0.0320     8.2290 hc         1 SOG       0.036700
     40 H7'2         0.8570    -1.4640     8.3210 hc         1 SOG       0.036700
     41 H8'1         0.9390    -0.3390    10.5420 hc         1 SOG       0.031700
     42 H8'2         0.2020     1.1240     9.8540 hc         1 SOG       0.031700
     43 H8'3        -0.7350    -0.3850     9.9470 hc         1 SOG       0.031700
     44 HO2         -3.2460    -0.0310    -2.5620 ho         1 SOG       0.527000
     45 HO3         -2.2850    -0.1430    -5.6460 ho         1 SOG       0.465000
     46 HO4          0.8910    -0.4430    -6.4330 ho         1 SOG       0.525000
     47 HO6          4.3630     0.5460    -1.7640 ho         1 SOG       0.504000
     48 C9          -0.4090    -0.1050     0.7400 c3         1 SOG       0.071600
@<TRIPOS>BOND
     1     1     2 1   
     2     1    14 1   
     3     1    18 1   
     4     1    20 1   
     5     2     3 1   
     6     2    15 1   
     7     2    21 1   
     8     3     4 1   
     9     3    16 1   
    10     3    22 1   
    11     4     5 1   
    12     4    17 1   
    13     4    23 1   
    14     5     6 1   
    15     5    18 1   
    16     5    24 1   
    17     6    19 1   
    18     6    25 1   
    19     6    26 1   
    20     7     8 1   
    21     7    29 1   
    22     7    30 1   
    23     7    48 1   
    24     8     9 1   
    25     8    31 1   
    26     8    32 1   
    27     9    10 1   
    28     9    33 1   
    29     9    34 1   
    30    10    11 1   
    31    10    35 1   
    32    10    36 1   
    33    11    12 1   
    34    11    37 1   
    35    11    38 1   
    36    12    13 1   
    37    12    39 1   
    38    12    40 1   
    39    13    41 1   
    40    13    42 1   
    41    13    43 1   
    42    14    48 1   
    43    15    44 1   
    44    16    45 1   
    45    17    46 1   
    46    19    47 1   
    47    27    48 1   
    48    28    48 1   
@<TRIPOS>SUBSTRUCTURE
     1 SOG         1 TEMP              0 ****  ****    0 ROOT
