@<TRIPOS>MOLECULE
SOI
   54    57     1     0     0
SMALL
No Charge or Current Charge


@<TRIPOS>ATOM
      1 C27         17.9610    21.3810     3.7930 ca         1 SOI       0.096000
      2 C26         17.0710    22.2650     3.1630 ca         1 SOI      -0.071500
      3 C29         17.8820    20.0020     3.5360 ca         1 SOI      -0.071500
      4 C30         16.9210    19.5070     2.6350 ca         1 SOI      -0.149000
      5 C24         16.0520    20.3950     1.9710 ca         1 SOI       0.123100
      6 O16         16.3660    21.6340    -0.7610 o          1 SOI      -0.578100
      7 C13         17.4350    20.5700    -3.3620 ca         1 SOI      -0.024000
      8 C12         17.5410    21.9650    -3.5320 ca         1 SOI      -0.158000
      9 C04         20.1490    17.2490    -7.3040 cc         1 SOI      -0.326900
     10 C05         19.4570    17.8880    -6.2960 cd         1 SOI      -0.090000
     11 C06         19.4880    19.3180    -6.3450 cd         1 SOI      -0.059000
     12 C07         20.2280    19.7610    -7.4190 cc         1 SOI      -0.232000
     13 C09         18.8180    20.2250    -5.3740 ca         1 SOI       0.013000
     14 C10         18.9150    21.6280    -5.5130 ca         1 SOI      -0.124000
     15 C11         18.2800    22.4870    -4.6020 ca         1 SOI      -0.082000
     16 C15         16.1670    20.4780    -1.1220 c          1 SOI       0.581100
     17 C17         15.3790    19.4350    -0.2290 c6         1 SOI       0.108000
     18 C18         16.0960    18.0370    -0.1850 c6         1 SOI      -0.076900
     19 C19         15.2440    16.9680     0.5420 c6         1 SOI       0.160300
     20 C21         13.1820    18.0650    -0.2250 c6         1 SOI       0.160300
     21 C22         14.0110    19.1610    -0.9380 c6         1 SOI      -0.076900
     22 C25         16.1100    21.7690     2.2640 ca         1 SOI      -0.149000
     23 C31         18.0670    19.7170    -4.2880 ca         1 SOI      -0.126000
     24 N01         20.9470    15.3840    -8.6360 nv         1 SOI      -1.038200
     25 N03         19.8590    14.9620    -6.7400 n2         1 SOI      -0.833100
     26 N14         16.6940    19.9680    -2.3070 ns         1 SOI      -0.140000
     27 N20         13.9420    16.7970    -0.1410 n7         1 SOI      -0.864400
     28 O23         15.0690    19.9430     1.1130 os         1 SOI      -0.377100
     29 S08         20.8880    18.4390    -8.3670 ss         1 SOI       0.241000
     30 Cl28        19.1610    21.9970     4.9220 cl         1 SOI      -0.208000
     31 H261        17.1230    23.3310     3.3750 ha         1 SOI       0.133500
     32 H291        18.5570    19.3170     4.0440 ha         1 SOI       0.133500
     33 H301        16.8470    18.4360     2.4820 ha         1 SOI       0.131000
     34 H121        17.0490    22.6580    -2.8580 ha         1 SOI       0.115000
     35 H051        18.9300    17.3350    -5.5270 ha         1 SOI       0.146000
     36 H071        20.4470    20.7690    -7.7400 h4         1 SOI       0.153000
     37 H101        19.4770    22.0720    -6.3270 ha         1 SOI       0.116000
     38 H111        18.3600    23.5650    -4.7310 ha         1 SOI       0.116000
     39 H181        16.2840    17.6610    -1.1990 hc         1 SOI       0.071450
     40 H182        17.0870    18.1210     0.2760 hc         1 SOI       0.071450
     41 H192        15.7820    16.0080     0.5490 h1         1 SOI       0.039700
     42 H191        15.0750    17.2630     1.5890 h1         1 SOI       0.039700
     43 H211        12.9120    18.4020     0.7880 h1         1 SOI       0.039700
     44 H212        12.2450    17.8940    -0.7760 h1         1 SOI       0.039700
     45 H222        13.4240    20.0890    -0.9770 hc         1 SOI       0.071450
     46 H221        14.1690    18.8600    -1.9820 hc         1 SOI       0.071450
     47 H251        15.4150    22.4520     1.7810 ha         1 SOI       0.131000
     48 H311        17.9670    18.6460    -4.1460 ha         1 SOI       0.148000
     49 H011        20.7790    14.4030    -8.8220 hn         1 SOI       0.471000
     50 H031        19.4410    15.4670    -5.9510 hn         1 SOI       0.391400
     51 H141        16.5010    18.9870    -2.4580 hn         1 SOI       0.168000
     52 H201        13.3820    16.1060     0.3770 hn         1 SOI       0.415000
     53 H012        20.9150    15.9980    -9.4390 hn         1 SOI       0.471000
     54 C02         20.3260    15.8270    -7.5350 ce         1 SOI       0.685800
@<TRIPOS>BOND
     1     1     2 ar  
     2     1     3 ar  
     3     1    30 1   
     4     2    22 ar  
     5     2    31 1   
     6     3     4 ar  
     7     3    32 1   
     8     4     5 ar  
     9     4    33 1   
    10     5    22 ar  
    11     5    28 1   
    12     6    16 2   
    13     7     8 ar  
    14     7    23 ar  
    15     7    26 1   
    16     8    15 ar  
    17     8    34 1   
    18     9    10 2   
    19     9    29 1   
    20     9    54 1   
    21    10    11 1   
    22    10    35 1   
    23    11    12 2   
    24    11    13 1   
    25    12    29 1   
    26    12    36 1   
    27    13    14 ar  
    28    13    23 ar  
    29    14    15 ar  
    30    14    37 1   
    31    15    38 1   
    32    16    17 1   
    33    16    26 1   
    34    17    18 1   
    35    17    21 1   
    36    17    28 1   
    37    18    19 1   
    38    18    39 1   
    39    18    40 1   
    40    19    27 1   
    41    19    41 1   
    42    19    42 1   
    43    20    21 1   
    44    20    27 1   
    45    20    43 1   
    46    20    44 1   
    47    21    45 1   
    48    21    46 1   
    49    22    47 1   
    50    23    48 1   
    51    24    49 1   
    52    24    53 1   
    53    24    54 1   
    54    25    50 1   
    55    25    54 2   
    56    26    51 1   
    57    27    52 1   
@<TRIPOS>SUBSTRUCTURE
     1 SOI         1 TEMP              0 ****  ****    0 ROOT
