@<TRIPOS>MOLECULE
SOI
   54    57     1     0     0
SMALL
abcg2


@<TRIPOS>ATOM
      1 C27         18.1850    21.2590     2.8210 ca         1 SOI       0.096000
      2 C26         16.8570    21.6370     2.9760 ca         1 SOI      -0.071500
      3 C29         18.5730    20.4300     1.7810 ca         1 SOI      -0.071500
      4 C30         17.6230    19.9680     0.8760 ca         1 SOI      -0.149000
      5 C24         16.2870    20.3350     1.0240 ca         1 SOI       0.123100
      6 O16         16.8510    17.9130    -2.2770 o          1 SOI      -0.578100
      7 C13         17.3120    20.6690    -3.2280 ca         1 SOI      -0.024000
      8 C12         17.4520    22.0580    -3.3130 ca         1 SOI      -0.158000
      9 C04         20.4660    17.5410    -6.8550 cc         1 SOI      -0.326900
     10 C05         19.8200    18.1610    -5.8200 cd         1 SOI      -0.090000
     11 C06         19.4880    19.5230    -6.0830 cd         1 SOI      -0.059000
     12 C07         19.9000    19.9020    -7.3400 cc         1 SOI      -0.232000
     13 C09         18.7900    20.4060    -5.1310 ca         1 SOI       0.013000
     14 C10         18.9290    21.7960    -5.2020 ca         1 SOI      -0.124000
     15 C11         18.2560    22.6090    -4.2990 ca         1 SOI      -0.082000
     16 C15         16.3180    18.8970    -1.7800 c          1 SOI       0.581100
     17 C17         15.3200    18.7650    -0.6110 c6         1 SOI       0.108000
     18 C18         15.6040    17.5370     0.2580 c6         1 SOI      -0.076900
     19 C19         14.4920    17.3130     1.2760 c6         1 SOI       0.160300
     20 C21         12.8570    18.3710    -0.1510 c6         1 SOI       0.160300
     21 C22         13.9100    18.6510    -1.2180 c6         1 SOI      -0.076900
     22 C25         15.9120    21.1690     2.0770 ca         1 SOI      -0.149000
     23 C31         17.9760    19.8490    -4.1400 ca         1 SOI      -0.126000
     24 N01         21.1020    15.6010    -8.1350 nv         1 SOI      -1.038200
     25 N03         21.3130    15.4890    -5.8420 n2         1 SOI      -0.833100
     26 N14         16.4810    20.1720    -2.2110 ns         1 SOI      -0.140000
     27 N20         13.2090    17.1600     0.5890 n7         1 SOI      -0.864400
     28 O23         15.2780    19.9830     0.1680 os         1 SOI      -0.377100
     29 S08         20.6750    18.6330    -8.1870 ss         1 SOI       0.241000
     30 CL28        19.3850    21.8400     3.9590 cl         1 SOI      -0.208000
     31 H261        16.5630    22.2830     3.7910 ha         1 SOI       0.133500
     32 H291        19.6090    20.1430     1.6670 ha         1 SOI       0.133500
     33 H301        17.9500    19.3300     0.0690 ha         1 SOI       0.131000
     34 H121        16.9340    22.6930    -2.6050 ha         1 SOI       0.115000
     35 H051        19.5890    17.6550    -4.8940 ha         1 SOI       0.146000
     36 H071        19.7740    20.8610    -7.8170 h4         1 SOI       0.153000
     37 H101        19.5720    22.2400    -5.9490 ha         1 SOI       0.116000
     38 H111        18.3670    23.6840    -4.3570 ha         1 SOI       0.116000
     39 H181        15.6730    16.6760    -0.4050 hc         1 SOI       0.071450
     40 H182        16.5620    17.6330     0.7660 hc         1 SOI       0.071450
     41 H192        14.7000    16.4020     1.8400 h1         1 SOI       0.039700
     42 H191        14.4790    18.1480     1.9930 h1         1 SOI       0.039700
     43 H211        12.7680    19.2470     0.5070 h1         1 SOI       0.039700
     44 H212        11.8890    18.2230    -0.6330 h1         1 SOI       0.039700
     45 H222        13.6750    19.5750    -1.7490 hc         1 SOI       0.071450
     46 H221        13.9240    17.8360    -1.9430 hc         1 SOI       0.071450
     47 H251        14.8710    21.4450     2.1820 ha         1 SOI       0.131000
     48 H311        17.8430    18.7830    -4.0790 ha         1 SOI       0.148000
     49 H011        21.3450    14.6220    -8.1560 hn         1 SOI       0.471000
     50 H031        21.2620    16.0750    -5.0140 hn         1 SOI       0.391400
     51 H141        15.9900    20.8710    -1.6710 hn         1 SOI       0.168000
     52 H201        12.4840    16.9560     1.2670 hn         1 SOI       0.415000
     53 H012        20.4630    15.8920    -8.8600 hn         1 SOI       0.471000
     54 C02         20.9690    16.1540    -6.8880 ce         1 SOI       0.685800
@<TRIPOS>BOND
     1     1     2 ar  
     2     1     3 ar  
     3     1    30 1   
     4     2    22 ar  
     5     2    31 1   
     6     3     4 ar  
     7     3    32 1   
     8     4     5 ar  
     9     4    33 1   
    10     5    22 ar  
    11     5    28 1   
    12     6    16 2   
    13     7     8 ar  
    14     7    23 ar  
    15     7    26 1   
    16     8    15 ar  
    17     8    34 1   
    18     9    10 2   
    19     9    29 1   
    20     9    54 1   
    21    10    11 1   
    22    10    35 1   
    23    11    12 2   
    24    11    13 1   
    25    12    29 1   
    26    12    36 1   
    27    13    14 ar  
    28    13    23 ar  
    29    14    15 ar  
    30    14    37 1   
    31    15    38 1   
    32    16    17 1   
    33    16    26 1   
    34    17    18 1   
    35    17    21 1   
    36    17    28 1   
    37    18    19 1   
    38    18    39 1   
    39    18    40 1   
    40    19    27 1   
    41    19    41 1   
    42    19    42 1   
    43    20    21 1   
    44    20    27 1   
    45    20    43 1   
    46    20    44 1   
    47    21    45 1   
    48    21    46 1   
    49    22    47 1   
    50    23    48 1   
    51    24    49 1   
    52    24    53 1   
    53    24    54 1   
    54    25    50 1   
    55    25    54 2   
    56    26    51 1   
    57    27    52 1   
@<TRIPOS>SUBSTRUCTURE
     1 SOI         1 TEMP              0 ****  ****    0 ROOT
