@<TRIPOS>MOLECULE
SOJ
   26    27     1     0     0
SMALL
No Charge or Current Charge


@<TRIPOS>ATOM
      1 N1          46.4470    92.2870     8.1610 nv         1 SOJ      -1.067000
      2 C4          44.8630    93.9010     7.3490 ca         1 SOJ      -0.157000
      3 C5          43.5940    94.5050     7.4300 ca         1 SOJ      -0.099500
      4 C6          40.1650    94.3270     8.9580 ca         1 SOJ       0.331000
      5 C7          39.7990    92.9730     9.0670 ca         1 SOJ      -0.184000
      6 C8          38.5290    92.6180     9.5560 ca         1 SOJ      -0.069000
      7 C10         37.9710    94.9730     9.8060 ca         1 SOJ      -0.069000
      8 C           42.6610    94.0810     8.3940 ca         1 SOJ       0.250000
      9 C1          43.0260    93.0610     9.2960 ca         1 SOJ      -0.099500
     10 C11         39.2420    95.3230     9.3150 ca         1 SOJ      -0.184000
     11 C2          44.2950    92.4580     9.2150 ca         1 SOJ      -0.157000
     12 C3          45.2130    92.8740     8.2390 ca         1 SOJ       0.270000
     13 C9          37.6170    93.6200     9.9290 ca         1 SOJ      -0.161000
     14 H1          46.6580    91.4640     8.7220 hn         1 SOJ       0.444000
     15 H2          47.0670    92.5010     7.3810 hn         1 SOJ       0.444000
     16 H3          45.5700    94.2340     6.5940 ha         1 SOJ       0.113500
     17 H4          43.3340    95.2990     6.7350 ha         1 SOJ       0.117000
     18 H5          40.4850    92.1920     8.7560 ha         1 SOJ       0.113500
     19 H6          38.2510    91.5690     9.6390 ha         1 SOJ       0.107500
     20 H7          37.2630    95.7500    10.0880 ha         1 SOJ       0.107500
     21 H8          41.4080    95.6530     8.0630 hn         1 SOJ       0.487000
     22 H9          42.3370    92.7450    10.0740 ha         1 SOJ       0.117000
     23 H10         39.5090    96.3720     9.2220 ha         1 SOJ       0.113500
     24 H11         44.5630    91.6720     9.9170 ha         1 SOJ       0.113500
     25 H12         36.6340    93.3470    10.3060 ha         1 SOJ       0.113000
     26 N           41.4120    94.7120     8.4600 nu         1 SOJ      -0.993000
@<TRIPOS>BOND
     1     1    12 1   
     2     1    14 1   
     3     1    15 1   
     4     2     3 ar  
     5     2    12 ar  
     6     2    16 1   
     7     3     8 ar  
     8     3    17 1   
     9     4     5 ar  
    10     4    10 ar  
    11     4    26 1   
    12     5     6 ar  
    13     5    18 1   
    14     6    13 ar  
    15     6    19 1   
    16     7    10 ar  
    17     7    13 ar  
    18     7    20 1   
    19     8     9 ar  
    20     8    26 1   
    21     9    11 ar  
    22     9    22 1   
    23    10    23 1   
    24    11    12 ar  
    25    11    24 1   
    26    13    25 1   
    27    21    26 1   
@<TRIPOS>SUBSTRUCTURE
     1 SOJ         1 TEMP              0 ****  ****    0 ROOT
