@<TRIPOS>MOLECULE
SOJ
   26    27     1     0     0
SMALL
abcg2


@<TRIPOS>ATOM
      1 N1          46.3320    92.1830     8.0150 nv         1 SOJ      -1.067000
      2 C4          44.6640    93.7840     7.2910 ca         1 SOJ      -0.157000
      3 C5          43.4700    94.4540     7.5020 ca         1 SOJ      -0.099500
      4 C6          40.2730    94.4360     9.1110 ca         1 SOJ       0.331000
      5 C7          39.9990    93.0630     9.1440 ca         1 SOJ      -0.184000
      6 C8          38.7120    92.6110     9.4020 ca         1 SOJ      -0.069000
      7 C10         37.9340    94.8620     9.5800 ca         1 SOJ      -0.069000
      8 C           42.7000    94.2170     8.6390 ca         1 SOJ       0.250000
      9 C1          43.1650    93.2770     9.5580 ca         1 SOJ      -0.099500
     10 C11         39.2120    95.3280     9.3320 ca         1 SOJ      -0.184000
     11 C2          44.3410    92.5820     9.3360 ca         1 SOJ      -0.157000
     12 C3          45.1220    92.8250     8.2000 ca         1 SOJ       0.270000
     13 C9          37.6670    93.4970     9.6240 ca         1 SOJ      -0.161000
     14 H1          46.4250    91.2980     8.4870 hn         1 SOJ       0.444000
     15 H2          46.6470    92.1240     7.0600 hn         1 SOJ       0.444000
     16 H3          45.2430    93.9990     6.4000 ha         1 SOJ       0.113500
     17 H4          43.1330    95.1760     6.7680 ha         1 SOJ       0.117000
     18 H5          40.7850    92.3420     8.9620 ha         1 SOJ       0.113500
     19 H6          38.5300    91.5440     9.4210 ha         1 SOJ       0.107500
     20 H7          37.1360    95.5760     9.7450 ha         1 SOJ       0.107500
     21 H8          41.5480    95.9130     8.5630 hn         1 SOJ       0.487000
     22 H9          42.6070    93.0850    10.4670 ha         1 SOJ       0.117000
     23 H10         39.4010    96.3950     9.3080 ha         1 SOJ       0.113500
     24 H11         44.6730    91.8540    10.0670 ha         1 SOJ       0.113500
     25 H12         36.6680    93.1350     9.8260 ha         1 SOJ       0.113000
     26 N           41.5270    94.9520     8.8640 nu         1 SOJ      -0.993000
@<TRIPOS>BOND
     1     1    12 1   
     2     1    14 1   
     3     1    15 1   
     4     2     3 ar  
     5     2    12 ar  
     6     2    16 1   
     7     3     8 ar  
     8     3    17 1   
     9     4     5 ar  
    10     4    10 ar  
    11     4    26 1   
    12     5     6 ar  
    13     5    18 1   
    14     6    13 ar  
    15     6    19 1   
    16     7    10 ar  
    17     7    13 ar  
    18     7    20 1   
    19     8     9 ar  
    20     8    26 1   
    21     9    11 ar  
    22     9    22 1   
    23    10    23 1   
    24    11    12 ar  
    25    11    24 1   
    26    13    25 1   
    27    21    26 1   
@<TRIPOS>SUBSTRUCTURE
     1 SOJ         1 TEMP              0 ****  ****    0 ROOT
