@<TRIPOS>MOLECULE
SOK
   35    37     1     0     0
SMALL
abcg2


@<TRIPOS>ATOM
      1 C          -12.1520     4.2390     0.8160 cc         1 SOK      -0.065300
      2 N          -10.9470     4.6970     1.2170 na         1 SOK      -0.105000
      3 O          -14.6850     4.0960    -0.6110 o          1 SOK      -0.565100
      4 C1         -12.6970     2.9460     1.3090 c3         1 SOK      -0.033800
      5 C2         -12.6720     5.1890    -0.0730 cd         1 SOK      -0.257600
      6 C3         -13.9540     5.0790    -0.7410 c          1 SOK       0.616700
      7 C4         -14.4160     6.2420    -1.6160 c3         1 SOK      -0.138200
      8 C5         -13.4340     6.6460    -2.6880 c2         1 SOK      -0.212200
      9 C6         -12.2690     7.2260    -2.4140 c2         1 SOK      -0.204200
     10 C7         -11.8370     7.5040    -0.9950 c3         1 SOK       0.021100
     11 C8         -11.6990     6.2500    -0.1860 cd         1 SOK      -0.050300
     12 C9         -10.6360     5.9080     0.6120 cc         1 SOK      -0.144000
     13 C10         -9.3740     6.5970     0.9140 ca         1 SOK       0.035000
     14 C12         -7.2530     7.5830     0.2740 ca         1 SOK      -0.065000
     15 C14         -7.9010     7.5800     2.6040 ca         1 SOK       0.293000
     16 C15         -9.0840     6.9300     2.2400 ca         1 SOK      -0.171000
     17 C11         -8.4290     6.9250    -0.0650 ca         1 SOK       0.094000
     18 C13         -6.9880     7.9120     1.5930 ca         1 SOK      -0.165000
     19 N1          -7.6690     7.9490     3.9200 nv         1 SOK      -1.075000
     20 CL          -8.6590     6.4580    -1.7420 cl         1 SOK      -0.202000
     21 H1         -10.3340     4.2060     1.8510 hn         1 SOK       0.346000
     22 H2         -12.8210     2.2360     0.4890 hc         1 SOK       0.058033
     23 H3         -12.0280     2.5100     2.0520 hc         1 SOK       0.058033
     24 H4         -13.6810     3.0850     1.7580 hc         1 SOK       0.058033
     25 H5         -14.5880     7.0910    -0.9420 hc         1 SOK       0.066200
     26 H6         -15.3740     5.9620    -2.0470 hc         1 SOK       0.066200
     27 H7         -13.7120     6.4360    -3.7140 ha         1 SOK       0.177000
     28 H8         -11.5910     7.4950    -3.2160 ha         1 SOK       0.179000
     29 H9         -10.9000     8.0580    -0.9780 hc         1 SOK       0.056700
     30 H10        -12.5880     8.1510    -0.5220 hc         1 SOK       0.056700
     31 H11         -6.5350     7.8240    -0.4970 ha         1 SOK       0.130000
     32 H12         -9.8090     6.6860     3.0070 ha         1 SOK       0.118000
     33 H13         -6.0670     8.4220     1.8460 ha         1 SOK       0.120000
     34 H14         -8.1680     7.4180     4.6180 hn         1 SOK       0.452500
     35 H15         -6.7020     8.1000     4.1680 hn         1 SOK       0.452500
@<TRIPOS>BOND
     1     1     2 1   
     2     1     4 1   
     3     1     5 2   
     4     2    12 1   
     5     2    21 1   
     6     3     6 2   
     7     4    22 1   
     8     4    23 1   
     9     4    24 1   
    10     5     6 1   
    11     5    11 1   
    12     6     7 1   
    13     7     8 1   
    14     7    25 1   
    15     7    26 1   
    16     8     9 2   
    17     8    27 1   
    18     9    10 1   
    19     9    28 1   
    20    10    11 1   
    21    10    29 1   
    22    10    30 1   
    23    11    12 2   
    24    12    13 1   
    25    13    16 ar  
    26    13    17 ar  
    27    14    17 ar  
    28    14    18 ar  
    29    14    31 1   
    30    15    16 ar  
    31    15    18 ar  
    32    15    19 1   
    33    16    32 1   
    34    17    20 1   
    35    18    33 1   
    36    19    34 1   
    37    19    35 1   
@<TRIPOS>SUBSTRUCTURE
     1 SOK         1 TEMP              0 ****  ****    0 ROOT
