@<TRIPOS>MOLECULE
SOK
   35    37     1     0     0
SMALL
No Charge or Current Charge


@<TRIPOS>ATOM
      1 C          -12.1420     4.0630     0.7280 cc         1 SOK      -0.065300
      2 N          -10.8960     4.4580     1.2040 na         1 SOK      -0.105000
      3 O          -14.6000     4.0720    -0.8690 o          1 SOK      -0.565100
      4 C1         -12.7790     2.7450     1.0900 c3         1 SOK      -0.033800
      5 C2         -12.6090     5.1110    -0.0470 cd         1 SOK      -0.257600
      6 C3         -13.9370     5.0960    -0.7460 c          1 SOK       0.616700
      7 C4         -14.4200     6.3910    -1.4130 c3         1 SOK      -0.138200
      8 C5         -13.4690     6.8310    -2.5050 c2         1 SOK      -0.212200
      9 C6         -12.2450     7.3070    -2.2380 c2         1 SOK      -0.204200
     10 C7         -11.6810     7.4610    -0.8350 c3         1 SOK       0.021100
     11 C8         -11.6140     6.1420    -0.0810 cd         1 SOK      -0.050300
     12 C9         -10.5640     5.6980     0.6820 cc         1 SOK      -0.144000
     13 C10         -9.3500     6.4670     0.9400 ca         1 SOK       0.035000
     14 C12         -7.2000     7.3830     0.2330 ca         1 SOK      -0.065000
     15 C14         -8.0010     7.7760     2.4970 ca         1 SOK       0.293000
     16 C15         -9.1560     7.0330     2.2150 ca         1 SOK      -0.171000
     17 C11         -8.3570     6.6390    -0.0520 ca         1 SOK       0.094000
     18 C13         -7.0250     7.9540     1.5070 ca         1 SOK      -0.165000
     19 N1          -7.8270     8.3260     3.7360 nv         1 SOK      -1.075000
     20 Cl          -8.5270     5.9100    -1.6510 cl         1 SOK      -0.202000
     21 H1         -10.3080     3.9100     1.8230 hn         1 SOK       0.346000
     22 H2         -12.9040     2.1150     0.2020 hc         1 SOK       0.058033
     23 H3         -12.1660     2.1880     1.8090 hc         1 SOK       0.058033
     24 H4         -13.7650     2.8970     1.5430 hc         1 SOK       0.058033
     25 H5         -14.4100     7.1740    -0.6480 hc         1 SOK       0.066200
     26 H6         -15.4410     6.2690    -1.7940 hc         1 SOK       0.066200
     27 H7         -13.8330     6.7340    -3.5310 ha         1 SOK       0.177000
     28 H8         -11.5730     7.6130    -3.0430 ha         1 SOK       0.179000
     29 H9         -10.6890     7.9220    -0.8990 hc         1 SOK       0.056700
     30 H10        -12.2880     8.1750    -0.2650 hc         1 SOK       0.056700
     31 H11         -6.4380     7.5140    -0.5320 ha         1 SOK       0.130000
     32 H12         -9.9150     6.8980     2.9800 ha         1 SOK       0.118000
     33 H13         -6.1270     8.5290     1.7200 ha         1 SOK       0.120000
     34 H14         -8.4650     8.0870     4.4940 hn         1 SOK       0.452500
     35 H15         -6.9340     8.7480     3.9870 hn         1 SOK       0.452500
@<TRIPOS>BOND
     1     1     2 1   
     2     1     4 1   
     3     1     5 2   
     4     2    12 1   
     5     2    21 1   
     6     3     6 2   
     7     4    22 1   
     8     4    23 1   
     9     4    24 1   
    10     5     6 1   
    11     5    11 1   
    12     6     7 1   
    13     7     8 1   
    14     7    25 1   
    15     7    26 1   
    16     8     9 2   
    17     8    27 1   
    18     9    10 1   
    19     9    28 1   
    20    10    11 1   
    21    10    29 1   
    22    10    30 1   
    23    11    12 2   
    24    12    13 1   
    25    13    16 ar  
    26    13    17 ar  
    27    14    17 ar  
    28    14    18 ar  
    29    14    31 1   
    30    15    16 ar  
    31    15    18 ar  
    32    15    19 1   
    33    16    32 1   
    34    17    20 1   
    35    18    33 1   
    36    19    34 1   
    37    19    35 1   
@<TRIPOS>SUBSTRUCTURE
     1 SOK         1 TEMP              0 ****  ****    0 ROOT
