@<TRIPOS>MOLECULE
SOL
   24    23     1     0     0
SMALL
bcc


@<TRIPOS>ATOM
      1 C1          -2.4480    -1.0850    -0.5040 c3         1 SOL       0.043400
      2 O1          -3.8390    -1.1750    -0.4630 oh         1 SOL      -0.564800
      3 C2          -2.0270     0.3080    -0.1220 c          1 SOL       0.533100
      4 O2          -2.7840     1.0950     0.3930 o          1 SOL      -0.484100
      5 C3          -0.6010     0.7310    -0.4490 c3         1 SOL       0.021100
      6 O3          -0.3690     2.0180     0.0410 oh         1 SOL      -0.580800
      7 C4           0.4140    -0.2580     0.1400 c3         1 SOL       0.109100
      8 O4           0.3620    -0.2140     1.5450 oh         1 SOL      -0.599800
      9 C5           1.8300    -0.0820    -0.4230 c3         1 SOL       0.126100
     10 O5           2.3810     1.1920    -0.1970 oh         1 SOL      -0.560800
     11 C6           2.7390    -1.1920     0.0850 c3         1 SOL       0.106400
     12 O6           3.9770    -1.0980    -0.5790 oh         1 SOL      -0.585800
     13 H1          -1.9620    -1.7770     0.2000 h1         1 SOL       0.042700
     14 H1A         -2.0280    -1.3150    -1.4930 h1         1 SOL       0.042700
     15 HO1         -4.0800    -2.0860    -0.6540 ho         1 SOL       0.411000
     16 H3          -0.5200     0.6970    -1.5480 h1         1 SOL       0.074700
     17 HO3         -1.2220     2.3720     0.3310 ho         1 SOL       0.432000
     18 H4           0.1070    -1.2670    -0.1550 h1         1 SOL       0.066700
     19 HO4          0.3590     0.7130     1.8150 ho         1 SOL       0.424000
     20 H5           1.7470    -0.1850    -1.5110 h1         1 SOL       0.084700
     21 HO5          2.5600     1.2940     0.7440 ho         1 SOL       0.402000
     22 H6           2.8570    -1.0990     1.1730 h1         1 SOL       0.026200
     23 H6A          2.2550    -2.1590    -0.1010 h1         1 SOL       0.026200
     24 HO6          4.5740    -1.7410    -0.1880 ho         1 SOL       0.405000
@<TRIPOS>BOND
     1     1     2 1   
     2     1     3 1   
     3     1    13 1   
     4     1    14 1   
     5     2    15 1   
     6     3     4 2   
     7     3     5 1   
     8     5     6 1   
     9     5     7 1   
    10     5    16 1   
    11     6    17 1   
    12     7     8 1   
    13     7     9 1   
    14     7    18 1   
    15     8    19 1   
    16     9    10 1   
    17     9    11 1   
    18     9    20 1   
    19    10    21 1   
    20    11    12 1   
    21    11    22 1   
    22    11    23 1   
    23    12    24 1   
@<TRIPOS>SUBSTRUCTURE
     1 SOL         1 TEMP              0 ****  ****    0 ROOT
