@<TRIPOS>MOLECULE
SOL
   24    23     1     0     0
SMALL
No Charge or Current Charge


@<TRIPOS>ATOM
      1 C1          -2.5730    -1.0640    -0.4060 c3         1 SOL       0.066600
      2 O1          -4.0110    -1.1190    -0.5880 oh         1 SOL      -0.627000
      3 C2          -2.0490     0.3320     0.0470 c          1 SOL       0.533100
      4 O2          -2.7710     1.1620     0.5980 o          1 SOL      -0.484100
      5 C3          -0.5810     0.6870    -0.3590 c3         1 SOL       0.044300
      6 O3          -0.1880     2.0270     0.0800 oh         1 SOL      -0.703000
      7 C4           0.4440    -0.3630     0.1740 c3         1 SOL       0.132300
      8 O4           0.4450    -0.3250     1.6140 oh         1 SOL      -0.722000
      9 C5           1.8890    -0.1390    -0.3920 c3         1 SOL       0.149300
     10 O5           2.3510     1.1810    -0.0270 oh         1 SOL      -0.683000
     11 C6           2.8980    -1.2330     0.0770 c3         1 SOL       0.129600
     12 O6           4.1530    -1.1310    -0.6240 oh         1 SOL      -0.708000
     13 H1          -2.2520    -1.7940     0.3480 h1         1 SOL       0.042700
     14 H1A         -2.0670    -1.3210    -1.3460 h1         1 SOL       0.042700
     15 HO1         -4.2430    -2.0390    -0.8510 ho         1 SOL       0.450000
     16 H3          -0.5640     0.6380    -1.4570 h1         1 SOL       0.074700
     17 HO3         -1.0160     2.5670     0.1610 ho         1 SOL       0.531000
     18 H4           0.1260    -1.3590    -0.1660 h1         1 SOL       0.066700
     19 HO4          0.6740     0.6020     1.8620 ho         1 SOL       0.523000
     20 H5           1.8170    -0.2150    -1.4870 h1         1 SOL       0.084700
     21 HO5          1.5230     1.7370    -0.0210 ho         1 SOL       0.501000
     22 H6           3.0570    -1.1390     1.1600 h1         1 SOL       0.026200
     23 H6A          2.4530    -2.2210    -0.1030 h1         1 SOL       0.026200
     24 HO6          4.7680    -1.7840    -0.2130 ho         1 SOL       0.504000
@<TRIPOS>BOND
     1     1     2 1   
     2     1     3 1   
     3     1    13 1   
     4     1    14 1   
     5     2    15 1   
     6     3     4 2   
     7     3     5 1   
     8     5     6 1   
     9     5     7 1   
    10     5    16 1   
    11     6    17 1   
    12     7     8 1   
    13     7     9 1   
    14     7    18 1   
    15     8    19 1   
    16     9    10 1   
    17     9    11 1   
    18     9    20 1   
    19    10    21 1   
    20    11    12 1   
    21    11    22 1   
    22    11    23 1   
    23    12    24 1   
@<TRIPOS>SUBSTRUCTURE
     1 SOL         1 TEMP              0 ****  ****    0 ROOT
