@<TRIPOS>MOLECULE
SOQ
   17    16     1     0     0
SMALL
No Charge or Current Charge


@<TRIPOS>ATOM
      1 CA          16.5210    13.2580     2.8410 c3         1 SOQ       0.047500
      2 CB          15.6480    14.1230     3.8060 c3         1 SOQ      -0.175400
      3 CG          16.4720    14.6410     5.0000 c          1 SOQ       0.720000
      4 N           17.5160    14.0900     2.0700 n7         1 SOQ      -0.828400
      5 C           15.6670    12.2660     1.9390 c          1 SOQ       0.685000
      6 O           16.1840    11.2070     1.6060 o          1 SOQ      -0.770000
      7 OD1         16.9110    15.7820     4.9670 o          1 SOQ      -0.777000
      8 OD2         16.6330    13.8940     5.9550 o          1 SOQ      -0.777000
      9 C1          16.9730    14.9700     1.0170 c3         1 SOQ       0.165100
     10 O1          14.5260    12.5690     1.6090 o          1 SOQ      -0.770000
     11 H1          17.0930    12.5850     3.4960 h1         1 SOQ       0.055700
     12 H2          15.2120    14.9480     3.2320 hc         1 SOQ       0.020200
     13 H3          14.8940    13.4220     4.1870 hc         1 SOQ       0.020200
     14 H4          18.1650    13.4400     1.6090 hn         1 SOQ       0.381000
     15 H7          17.7900    15.5010     0.5120 h1         1 SOQ       0.000033
     16 H8          16.4290    14.3880     0.2620 h1         1 SOQ       0.000033
     17 H9          16.2920    15.7230     1.4360 h1         1 SOQ       0.000033
@<TRIPOS>BOND
     1     1     2 1   
     2     1     4 1   
     3     1     5 1   
     4     1    11 1   
     5     2     3 1   
     6     2    12 1   
     7     2    13 1   
     8     3     7 1   
     9     3     8 1   
    10     4     9 1   
    11     4    14 1   
    12     5     6 1   
    13     5    10 1   
    14     9    15 1   
    15     9    16 1   
    16     9    17 1   
@<TRIPOS>SUBSTRUCTURE
     1 SOQ         1 TEMP              0 ****  ****    0 ROOT
