@<TRIPOS>MOLECULE
SOQ
   17    16     1     0     0
SMALL
bcc


@<TRIPOS>ATOM
      1 CA          16.4680    13.1500     2.8340 c3         1 SOQ       0.047500
      2 CB          15.6360    14.1240     3.6570 c3         1 SOQ      -0.175400
      3 CG          16.4070    14.8470     4.7760 c          1 SOQ       0.930600
      4 N           17.5620    13.8320     2.1510 n7         1 SOQ      -0.773200
      5 C           15.6110    12.2390     1.9050 c          1 SOQ       0.895600
      6 O           16.1090    11.9300     0.8020 o          1 SOQ      -0.875300
      7 OD1         16.1350    16.0540     4.9580 o          1 SOQ      -0.882300
      8 OD2         17.2110    14.1660     5.4460 o          1 SOQ      -0.882300
      9 C1          17.1520    14.9160     1.2810 c3         1 SOQ       0.165100
     10 O1          14.5200    11.8330     2.3580 o          1 SOQ      -0.875300
     11 H1          16.9420    12.4670     3.5520 h1         1 SOQ       0.055700
     12 H2          15.1520    14.8590     3.0080 hc         1 SOQ       0.020200
     13 H3          14.8200    13.5620     4.1180 hc         1 SOQ       0.020200
     14 H4          18.0190    13.1390     1.5740 hn         1 SOQ       0.325800
     15 H7          17.9980    15.2110     0.6570 h1         1 SOQ       0.000033
     16 H8          16.3160    14.6820     0.6070 h1         1 SOQ       0.000033
     17 H9          16.8670    15.7960     1.8610 h1         1 SOQ       0.000033
@<TRIPOS>BOND
     1     1     2 1   
     2     1     4 1   
     3     1     5 1   
     4     1    11 1   
     5     2     3 1   
     6     2    12 1   
     7     2    13 1   
     8     3     7 1   
     9     3     8 1   
    10     4     9 1   
    11     4    14 1   
    12     5     6 1   
    13     5    10 1   
    14     9    15 1   
    15     9    16 1   
    16     9    17 1   
@<TRIPOS>SUBSTRUCTURE
     1 SOQ         1 TEMP              0 ****  ****    0 ROOT
