@<TRIPOS>MOLECULE
SOR
   26    25     1     0     0
SMALL
No Charge or Current Charge


@<TRIPOS>ATOM
      1 C1          37.1320    34.0600    56.2430 c3         1 SOR       0.144100
      2 C2          35.6390    34.2450    56.6640 c3         1 SOR       0.154800
      3 C3          34.9330    32.8890    57.0070 c3         1 SOR       0.148800
      4 C4          33.4080    33.0860    57.3420 c3         1 SOR       0.148800
      5 C5          32.6190    31.7500    57.5610 c3         1 SOR       0.154800
      6 C6          31.1000    31.9810    57.8460 c3         1 SOR       0.144100
      7 O1          37.6950    35.2820    55.7210 oh         1 SOR      -0.726500
      8 O2          35.5190    35.1430    57.7880 oh         1 SOR      -0.717000
      9 O3          35.6200    32.2180    58.0940 oh         1 SOR      -0.719500
     10 O4          33.2470    33.9330    58.5040 oh         1 SOR      -0.719500
     11 O5          32.7660    30.8980    56.4050 oh         1 SOR      -0.717000
     12 O6          30.9020    32.7930    59.0220 oh         1 SOR      -0.726500
     13 H11         37.7100    33.7130    57.1100 h1         1 SOR       0.034950
     14 H12         37.1840    33.2710    55.4800 h1         1 SOR       0.034950
     15 H2          35.1070    34.6690    55.8010 h1         1 SOR       0.054200
     16 H3          34.9950    32.2680    56.1020 h1         1 SOR       0.046200
     17 H4          32.9510    33.5840    56.4750 h1         1 SOR       0.046200
     18 H5          33.0440    31.2450    58.4410 h1         1 SOR       0.054200
     19 H61         30.6420    32.4650    56.9730 h1         1 SOR       0.034950
     20 H62         30.6120    31.0060    57.9790 h1         1 SOR       0.034950
     21 HO1         38.6560    35.1160    55.5720 ho         1 SOR       0.508000
     22 HO2         34.7120    34.7880    58.2640 ho         1 SOR       0.520000
     23 HO3         35.3350    31.2760    58.0790 ho         1 SOR       0.517500
     24 HO4         32.3570    33.6590    58.8780 ho         1 SOR       0.517500
     25 HO5         32.3480    30.0300    56.6170 ho         1 SOR       0.520000
     26 HO6         29.9380    32.7580    59.2380 ho         1 SOR       0.508000
@<TRIPOS>BOND
     1     1     2 1   
     2     1     7 1   
     3     1    13 1   
     4     1    14 1   
     5     2     3 1   
     6     2     8 1   
     7     2    15 1   
     8     3     4 1   
     9     3     9 1   
    10     3    16 1   
    11     4     5 1   
    12     4    10 1   
    13     4    17 1   
    14     5     6 1   
    15     5    11 1   
    16     5    18 1   
    17     6    12 1   
    18     6    19 1   
    19     6    20 1   
    20     7    21 1   
    21     8    22 1   
    22     9    23 1   
    23    10    24 1   
    24    11    25 1   
    25    12    26 1   
@<TRIPOS>SUBSTRUCTURE
     1 SOR         1 TEMP              0 ****  ****    0 ROOT
