@<TRIPOS>MOLECULE
SOR
   26    25     1     0     0
SMALL
abcg2


@<TRIPOS>ATOM
      1 C1          36.9910    33.9960    56.2310 c3         1 SOR       0.144100
      2 C2          35.6100    34.2080    56.8160 c3         1 SOR       0.154800
      3 C3          34.8670    32.8790    56.9900 c3         1 SOR       0.148800
      4 C4          33.3950    33.0760    57.3660 c3         1 SOR       0.148800
      5 C5          32.6790    31.7550    57.6730 c3         1 SOR       0.154800
      6 C6          31.1660    31.9260    57.7710 c3         1 SOR       0.144100
      7 O1          37.5140    35.2650    55.8290 oh         1 SOR      -0.726500
      8 O2          35.7520    34.9350    58.0350 oh         1 SOR      -0.717000
      9 O3          35.5730    32.0720    57.9340 oh         1 SOR      -0.719500
     10 O4          33.2970    33.9400    58.5040 oh         1 SOR      -0.719500
     11 O5          32.9850    30.8410    56.6220 oh         1 SOR      -0.717000
     12 O6          30.8670    32.7870    58.8810 oh         1 SOR      -0.726500
     13 H11         37.6360    33.5320    56.9820 h1         1 SOR       0.034950
     14 H12         36.9160    33.3230    55.3700 h1         1 SOR       0.034950
     15 H2          35.0290    34.7990    56.0940 h1         1 SOR       0.054200
     16 H3          34.8680    32.3880    56.0130 h1         1 SOR       0.046200
     17 H4          32.9080    33.5470    56.5020 h1         1 SOR       0.046200
     18 H5          33.0590    31.3810    58.6300 h1         1 SOR       0.054200
     19 H61         30.7900    32.3560    56.8380 h1         1 SOR       0.034950
     20 H62         30.7020    30.9460    57.9200 h1         1 SOR       0.034950
     21 HO1         38.3990    35.1250    55.4720 ho         1 SOR       0.508000
     22 HO2         34.8890    34.8910    58.4790 ho         1 SOR       0.520000
     23 HO3         35.2970    31.1570    57.8020 ho         1 SOR       0.517500
     24 HO4         32.3800    33.8920    58.8270 ho         1 SOR       0.517500
     25 HO5         32.6310    29.9730    56.8530 ho         1 SOR       0.520000
     26 HO6         29.9740    33.1360    58.7740 ho         1 SOR       0.508000
@<TRIPOS>BOND
     1     1     2 1   
     2     1     7 1   
     3     1    13 1   
     4     1    14 1   
     5     2     3 1   
     6     2     8 1   
     7     2    15 1   
     8     3     4 1   
     9     3     9 1   
    10     3    16 1   
    11     4     5 1   
    12     4    10 1   
    13     4    17 1   
    14     5     6 1   
    15     5    11 1   
    16     5    18 1   
    17     6    12 1   
    18     6    19 1   
    19     6    20 1   
    20     7    21 1   
    21     8    22 1   
    22     9    23 1   
    23    10    24 1   
    24    11    25 1   
    25    12    26 1   
@<TRIPOS>SUBSTRUCTURE
     1 SOR         1 TEMP              0 ****  ****    0 ROOT
