@<TRIPOS>MOLECULE
SOT
   18    18     1     0     0
SMALL
No Charge or Current Charge


@<TRIPOS>ATOM
      1 O1          -2.9700     0.0200    -0.2970 os         1 SOT      -0.472000
      2 C2          -2.3330    -1.1820     0.1950 c6         1 SOT       0.153600
      3 C3          -0.8300    -1.2120    -0.2180 c6         1 SOT       0.156800
      4 N4          -0.1050     0.0170     0.2220 n3         1 SOT      -0.714500
      5 C5          -0.8260     1.2460    -0.2250 c6         1 SOT       0.156800
      6 C6          -2.3290     1.2230     0.1890 c6         1 SOT       0.153600
      7 S            1.5800     0.0130    -0.1130 s6         1 SOT       1.357700
      8 O1S          2.0430     1.2460     0.5370 o          1 SOT      -0.706533
      9 O2S          2.0390    -1.2170     0.5440 o          1 SOT      -0.706533
     10 H21         -2.4230    -1.2150     1.2910 h1         1 SOT       0.031450
     11 H22         -2.8520    -2.0580    -0.2170 h1         1 SOT       0.031450
     12 H31         -0.3740    -2.1120     0.2200 h1         1 SOT       0.051200
     13 H32         -0.7720    -1.3220    -1.3110 h1         1 SOT       0.051200
     14 H51         -0.3670     2.1470     0.2070 h1         1 SOT       0.051200
     15 H52         -0.7670     1.3490    -1.3180 h1         1 SOT       0.051200
     16 H61         -2.8460     2.0980    -0.2290 h1         1 SOT       0.031450
     17 H62         -2.4180     1.2630     1.2840 h1         1 SOT       0.031450
     18 O4           1.6330     0.0090    -1.5800 o          1 SOT      -0.706533
@<TRIPOS>BOND
     1     1     2 1   
     2     1     6 1   
     3     2     3 1   
     4     2    10 1   
     5     2    11 1   
     6     3     4 1   
     7     3    12 1   
     8     3    13 1   
     9     4     5 1   
    10     4     7 1   
    11     5     6 1   
    12     5    14 1   
    13     5    15 1   
    14     6    16 1   
    15     6    17 1   
    16     7     8 1   
    17     7     9 1   
    18     7    18 1   
@<TRIPOS>SUBSTRUCTURE
     1 SOT         1 TEMP              0 ****  ****    0 ROOT
