@<TRIPOS>MOLECULE
SOT
   18    18     1     0     0
SMALL
bcc


@<TRIPOS>ATOM
      1 O1          -2.9570     0.0200    -0.2430 os         1 SOT      -0.425600
      2 C2          -2.2950    -1.1410     0.2040 c6         1 SOT       0.130400
      3 C3          -0.8520    -1.1820    -0.2650 c6         1 SOT       0.156800
      4 N4          -0.1690     0.0170     0.2080 n3         1 SOT      -0.714500
      5 C5          -0.8480     1.2160    -0.2700 c6         1 SOT       0.156800
      6 C6          -2.2910     1.1820     0.1990 c6         1 SOT       0.130400
      7 S            1.5110     0.0130    -0.0660 s6         1 SOT       1.357700
      8 O1S          1.9760     1.2490     0.5780 o          1 SOT      -0.706533
      9 O2S          1.9720    -1.2160     0.5950 o          1 SOT      -0.706533
     10 H21         -2.3230    -1.2040     1.3010 h1         1 SOT       0.031450
     11 H22         -2.8360    -2.0000    -0.1950 h1         1 SOT       0.031450
     12 H31         -0.3750    -2.0680     0.1520 h1         1 SOT       0.051200
     13 H32         -0.8220    -1.2660    -1.3610 h1         1 SOT       0.051200
     14 H51         -0.3680     2.1020     0.1430 h1         1 SOT       0.051200
     15 H52         -0.8170     1.2960    -1.3660 h1         1 SOT       0.051200
     16 H61         -2.8300     2.0410    -0.2050 h1         1 SOT       0.031450
     17 H62         -2.3200     1.2490     1.2950 h1         1 SOT       0.031450
     18 O4           1.7280     0.0020    -1.5230 o          1 SOT      -0.706533
@<TRIPOS>BOND
     1     1     2 1   
     2     1     6 1   
     3     2     3 1   
     4     2    10 1   
     5     2    11 1   
     6     3     4 1   
     7     3    12 1   
     8     3    13 1   
     9     4     5 1   
    10     4     7 1   
    11     5     6 1   
    12     5    14 1   
    13     5    15 1   
    14     6    16 1   
    15     6    17 1   
    16     7     8 1   
    17     7     9 1   
    18     7    18 1   
@<TRIPOS>SUBSTRUCTURE
     1 SOT         1 TEMP              0 ****  ****    0 ROOT
