@<TRIPOS>MOLECULE
SOU
   34    33     1     0     0
SMALL
No Charge or Current Charge


@<TRIPOS>ATOM
      1 C4         132.6770   159.4670   135.6460 c2         1 SOU      -0.243200
      2 C5         133.9580   159.3310   136.0520 c2         1 SOU      -0.077400
      3 C6         134.5550   158.0230   136.5540 c3         1 SOU      -0.063900
      4 C7         134.9980   160.4530   136.0670 c3         1 SOU      -0.045200
      5 C8         134.5240   161.8350   135.5610 c3         1 SOU      -0.036200
      6 C10        136.5460   163.1500   134.6710 c2         1 SOU      -0.108400
      7 C1         131.4970   155.6740   133.0530 c3         1 SOU      -0.157100
      8 O1         130.0880   156.2000   134.9560 o          1 SOU      -0.492000
      9 C2         131.0620   156.4800   134.2690 c          1 SOU       0.593100
     10 O2         131.8940   157.5430   134.4930 os         1 SOU      -0.450100
     11 C3         131.6100   158.3940   135.6130 c3         1 SOU       0.205800
     12 C9         135.6290   162.8750   135.6180 c2         1 SOU      -0.227200
     13 C11        136.6770   162.4330   133.3350 c3         1 SOU      -0.056900
     14 C12        137.5880   164.2400   134.8420 c3         1 SOU      -0.056900
     15 H1         132.3000   160.4250   135.2920 ha         1 SOU       0.180000
     16 H4         135.4080   157.7190   135.9370 hc         1 SOU       0.044033
     17 H5         134.9110   158.1260   137.5860 hc         1 SOU       0.044033
     18 H6         133.8390   157.1940   136.5410 hc         1 SOU       0.044033
     19 H7         135.8620   160.1510   135.4620 hc         1 SOU       0.050200
     20 H8         135.3760   160.5800   137.0890 hc         1 SOU       0.050200
     21 H9         133.6770   162.1740   136.1710 hc         1 SOU       0.047700
     22 H10        134.1430   161.7360   134.5380 hc         1 SOU       0.047700
     23 H12        130.8440   154.8160   132.8590 hc         1 SOU       0.068367
     24 H13        131.5590   156.3450   132.1890 hc         1 SOU       0.068367
     25 H14        132.5410   155.3710   133.1860 hc         1 SOU       0.068367
     26 H15        130.6200   158.8580   135.5060 h1         1 SOU       0.052200
     27 H16        131.6160   157.8250   136.5530 h1         1 SOU       0.052200
     28 H17        135.6280   163.4490   136.5460 ha         1 SOU       0.164000
     29 H19        135.9700   161.6050   133.2230 hc         1 SOU       0.039033
     30 H20        136.5050   163.1240   132.5010 hc         1 SOU       0.039033
     31 H21        137.6820   162.0110   133.2140 hc         1 SOU       0.039033
     32 H22        137.4870   164.7530   135.8060 hc         1 SOU       0.039033
     33 H23        138.6030   163.8280   134.7950 hc         1 SOU       0.039033
     34 H24        137.4980   164.9990   134.0550 hc         1 SOU       0.039033
@<TRIPOS>BOND
     1     1     2 2   
     2     1    11 1   
     3     1    15 1   
     4     2     3 1   
     5     2     4 1   
     6     3    16 1   
     7     3    17 1   
     8     3    18 1   
     9     4     5 1   
    10     4    19 1   
    11     4    20 1   
    12     5    12 1   
    13     5    21 1   
    14     5    22 1   
    15     6    12 2   
    16     6    13 1   
    17     6    14 1   
    18     7     9 1   
    19     7    23 1   
    20     7    24 1   
    21     7    25 1   
    22     8     9 2   
    23     9    10 1   
    24    10    11 1   
    25    11    26 1   
    26    11    27 1   
    27    12    28 1   
    28    13    29 1   
    29    13    30 1   
    30    13    31 1   
    31    14    32 1   
    32    14    33 1   
    33    14    34 1   
@<TRIPOS>SUBSTRUCTURE
     1 SOU         1 TEMP              0 ****  ****    0 ROOT
