@<TRIPOS>MOLECULE
SOU
   34    33     1     0     0
SMALL
abcg2


@<TRIPOS>ATOM
      1 C4         132.9350   159.2260   135.6300 c2         1 SOU      -0.243200
      2 C5         134.0650   159.2640   136.3410 c2         1 SOU      -0.077400
      3 C6         134.5300   158.1830   137.2720 c3         1 SOU      -0.063900
      4 C7         135.0180   160.4290   136.2760 c3         1 SOU      -0.045200
      5 C8         134.6390   161.5960   135.3680 c3         1 SOU      -0.036200
      6 C10        136.5020   163.1140   134.5200 c2         1 SOU      -0.108400
      7 C1         131.1980   156.0280   132.6900 c3         1 SOU      -0.157100
      8 O1         130.2640   156.1640   134.9010 o          1 SOU      -0.492000
      9 C2         131.0580   156.5610   134.0860 c          1 SOU       0.593100
     10 O2         131.9280   157.5370   134.3240 os         1 SOU      -0.450100
     11 C3         131.9160   158.1390   135.6340 c3         1 SOU       0.205800
     12 C9         135.6460   162.7010   135.4580 c2         1 SOU      -0.227200
     13 C11        136.6090   162.5310   133.1420 c3         1 SOU      -0.056900
     14 C12        137.4570   164.2410   134.7920 c3         1 SOU      -0.056900
     15 H1         132.6940   160.0640   134.9840 ha         1 SOU       0.180000
     16 H4         135.5160   157.8240   136.9690 hc         1 SOU       0.044033
     17 H5         134.6420   158.5770   138.2850 hc         1 SOU       0.044033
     18 H6         133.8670   157.3220   137.3240 hc         1 SOU       0.044033
     19 H7         135.9980   160.0440   135.9720 hc         1 SOU       0.050200
     20 H8         135.1680   160.8000   137.2970 hc         1 SOU       0.050200
     21 H9         133.6620   161.9860   135.6720 hc         1 SOU       0.047700
     22 H10        134.5220   161.2440   134.3420 hc         1 SOU       0.047700
     23 H12        130.4910   155.2210   132.5200 hc         1 SOU       0.068367
     24 H13        131.0170   156.8180   131.9600 hc         1 SOU       0.068367
     25 H14        132.2090   155.6580   132.5200 hc         1 SOU       0.068367
     26 H15        130.9230   158.5520   135.8280 h1         1 SOU       0.052200
     27 H16        132.1110   157.3790   136.3890 h1         1 SOU       0.052200
     28 H17        135.6800   163.2050   136.4210 ha         1 SOU       0.164000
     29 H19        135.9050   161.7230   132.9550 hc         1 SOU       0.039033
     30 H20        136.4420   163.3010   132.3840 hc         1 SOU       0.039033
     31 H21        137.6160   162.1430   132.9690 hc         1 SOU       0.039033
     32 H22        137.3500   164.6340   135.8020 hc         1 SOU       0.039033
     33 H23        138.4930   163.9160   134.6620 hc         1 SOU       0.039033
     34 H24        137.3010   165.0640   134.0890 hc         1 SOU       0.039033
@<TRIPOS>BOND
     1     1     2 2   
     2     1    11 1   
     3     1    15 1   
     4     2     3 1   
     5     2     4 1   
     6     3    16 1   
     7     3    17 1   
     8     3    18 1   
     9     4     5 1   
    10     4    19 1   
    11     4    20 1   
    12     5    12 1   
    13     5    21 1   
    14     5    22 1   
    15     6    12 2   
    16     6    13 1   
    17     6    14 1   
    18     7     9 1   
    19     7    23 1   
    20     7    24 1   
    21     7    25 1   
    22     8     9 2   
    23     9    10 1   
    24    10    11 1   
    25    11    26 1   
    26    11    27 1   
    27    12    28 1   
    28    13    29 1   
    29    13    30 1   
    30    13    31 1   
    31    14    32 1   
    32    14    33 1   
    33    14    34 1   
@<TRIPOS>SUBSTRUCTURE
     1 SOU         1 TEMP              0 ****  ****    0 ROOT
