@<TRIPOS>MOLECULE
SOV
   24    25     1     0     0
SMALL
abcg2


@<TRIPOS>ATOM
      1 N1          21.7240   113.0740    16.7810 n1         1 SOV      -0.450000
      2 C4          21.8780   113.2010    15.6460 cg         1 SOV       0.324000
      3 C5          21.7200   112.2980    13.3810 ca         1 SOV      -0.028300
      4 C6          21.1520   111.0190    13.9110 c3         1 SOV      -0.056800
      5 C7          21.9220   112.4930    12.0200 ca         1 SOV      -0.109000
      6 C8          22.4350   113.6830    11.5270 ca         1 SOV      -0.073000
      7 C10         23.6120   118.1270    11.3470 cc         1 SOV      -0.229700
      8 N           23.3110   115.9140    11.9000 n          1 SOV      -0.326600
      9 C           24.5210   116.0280    11.2240 c          1 SOV       0.558200
     10 O           25.2690   115.1210    10.9780 o          1 SOV      -0.459500
     11 C1          22.7800   114.7070    12.3990 ca         1 SOV       0.044600
     12 C11         24.6710   117.4710    10.8890 cd         1 SOV      -0.229700
     13 C2          22.6020   114.5440    13.7610 ca         1 SOV      -0.057000
     14 C3          22.0660   113.3510    14.2390 ca         1 SOV      -0.014000
     15 C9          22.6990   117.1570    12.0120 c          1 SOV       0.558200
     16 O1          21.6440   117.3680    12.5460 o          1 SOV      -0.459500
     17 H1          21.8070   110.5740    14.6610 hc         1 SOV       0.054033
     18 H2          20.1830   111.1840    14.3840 hc         1 SOV       0.054033
     19 H3          21.0140   110.2940    13.1120 hc         1 SOV       0.054033
     20 H4          21.6650   111.7020    11.3280 ha         1 SOV       0.124000
     21 H5          22.5600   113.8140    10.4600 ha         1 SOV       0.128000
     22 H6          23.3900   119.1810    11.2780 ha         1 SOV       0.228500
     23 H7          25.5280   117.8590    10.3610 ha         1 SOV       0.228500
     24 H8          22.8810   115.3290    14.4510 ha         1 SOV       0.136000
@<TRIPOS>BOND
     1     1     2 3   
     2     2    14 1   
     3     3     4 1   
     4     3     5 ar  
     5     3    14 ar  
     6     4    17 1   
     7     4    18 1   
     8     4    19 1   
     9     5     6 ar  
    10     5    20 1   
    11     6    11 ar  
    12     6    21 1   
    13     7    12 2   
    14     7    15 1   
    15     7    22 1   
    16     8     9 1   
    17     8    11 1   
    18     8    15 1   
    19     9    10 2   
    20     9    12 1   
    21    11    13 ar  
    22    12    23 1   
    23    13    14 ar  
    24    13    24 1   
    25    15    16 2   
@<TRIPOS>SUBSTRUCTURE
     1 SOV         1 TEMP              0 ****  ****    0 ROOT
