@<TRIPOS>MOLECULE
SOV
   24    25     1     0     0
SMALL
No Charge or Current Charge


@<TRIPOS>ATOM
      1 N1          21.4160   113.2390    16.8170 n1         1 SOV      -0.450000
      2 C4          21.6570   113.2970    15.6750 cg         1 SOV       0.324000
      3 C5          21.7400   112.2840    13.4010 ca         1 SOV      -0.028300
      4 C6          21.1700   110.9600    13.9080 c3         1 SOV      -0.056800
      5 C7          22.0560   112.4190    12.0350 ca         1 SOV      -0.109000
      6 C8          22.5810   113.6220    11.5360 ca         1 SOV      -0.073000
      7 C10         23.6800   118.1590    11.4800 cc         1 SOV      -0.229700
      8 N           23.3370   115.9510    11.8820 n          1 SOV      -0.326600
      9 C           24.4080   116.0230    10.9790 c          1 SOV       0.558200
     10 O           25.0490   115.0960    10.5080 o          1 SOV      -0.459500
     11 C1          22.8010   114.7170    12.3940 ca         1 SOV       0.044600
     12 C11         24.6010   117.4560    10.7420 cd         1 SOV      -0.229700
     13 C2          22.4860   114.5850    13.7610 ca         1 SOV      -0.057000
     14 C3          21.9590   113.3810    14.2700 ca         1 SOV      -0.014000
     15 C9          22.8460   117.2190    12.2270 c          1 SOV       0.558200
     16 O1          21.9160   117.4760    12.9760 o          1 SOV      -0.459500
     17 H1          21.8210   110.5150    14.6700 hc         1 SOV       0.054033
     18 H2          20.1770   111.1000    14.3500 hc         1 SOV       0.054033
     19 H3          21.0660   110.2250    13.1000 hc         1 SOV       0.054033
     20 H4          21.8920   111.5890    11.3520 ha         1 SOV       0.124000
     21 H5          22.8040   113.7030    10.4750 ha         1 SOV       0.128000
     22 H6          23.5360   119.2330    11.5430 ha         1 SOV       0.228500
     23 H7          25.3730   117.8250    10.0760 ha         1 SOV       0.228500
     24 H8          22.6630   115.4180    14.4380 ha         1 SOV       0.136000
@<TRIPOS>BOND
     1     1     2 3   
     2     2    14 1   
     3     3     4 1   
     4     3     5 ar  
     5     3    14 ar  
     6     4    17 1   
     7     4    18 1   
     8     4    19 1   
     9     5     6 ar  
    10     5    20 1   
    11     6    11 ar  
    12     6    21 1   
    13     7    12 2   
    14     7    15 1   
    15     7    22 1   
    16     8     9 1   
    17     8    11 1   
    18     8    15 1   
    19     9    10 2   
    20     9    12 1   
    21    11    13 ar  
    22    12    23 1   
    23    13    14 ar  
    24    13    24 1   
    25    15    16 2   
@<TRIPOS>SUBSTRUCTURE
     1 SOV         1 TEMP              0 ****  ****    0 ROOT
