@<TRIPOS>MOLECULE
SOW
   16    15     1     0     0
SMALL
abcg2


@<TRIPOS>ATOM
      1 N          106.9620   123.3580   143.9330 n7         1 SOW      -0.841400
      2 CA         106.4090   124.5150   143.2600 c3         1 SOW       0.009800
      3 C          107.2570   124.9680   142.0530 c          1 SOW       0.723000
      4 O          108.0790   124.1480   141.5990 o          1 SOW      -0.734000
      5 CB         106.0500   122.7040   144.8270 c3         1 SOW       0.100800
      6 CG         104.8660   122.0000   144.1620 c          1 SOW       0.553100
      7 OD1        104.9260   121.5800   143.0170 o          1 SOW      -0.599100
      8 ND2        103.7890   121.8400   144.9480 nt         1 SOW      -0.626000
      9 H          107.3100   122.7140   143.2360 hn         1 SOW       0.453000
     10 HA2        106.3260   125.3430   143.9710 h1         1 SOW       0.013700
     11 HA3        105.3860   124.3500   142.8800 h1         1 SOW       0.013700
     12 H6         106.5870   121.9340   145.3960 h1         1 SOW       0.038700
     13 H7         105.6870   123.4210   145.5690 h1         1 SOW       0.038700
     14 H8         102.9930   121.3110   144.6280 hn         1 SOW       0.295000
     15 H9         103.7600   122.1950   145.8880 hn         1 SOW       0.295000
     16 OXT        107.0090   126.1090   141.6170 o          1 SOW      -0.734000
@<TRIPOS>BOND
     1     1     2 1   
     2     1     5 1   
     3     1     9 1   
     4     2     3 1   
     5     2    10 1   
     6     2    11 1   
     7     3     4 1   
     8     3    16 1   
     9     5     6 1   
    10     5    12 1   
    11     5    13 1   
    12     6     7 2   
    13     6     8 1   
    14     8    14 1   
    15     8    15 1   
@<TRIPOS>SUBSTRUCTURE
     1 SOW         1 TEMP              0 ****  ****    0 ROOT
