@<TRIPOS>MOLECULE
SOW
   16    15     1     0     0
SMALL
No Charge or Current Charge


@<TRIPOS>ATOM
      1 N          106.9900   123.3540   143.9210 n7         1 SOW      -0.841400
      2 CA         106.3510   124.4710   143.1460 c3         1 SOW       0.009800
      3 C          107.2540   125.1290   142.0350 c          1 SOW       0.723000
      4 O          107.6820   124.4130   141.1370 o          1 SOW      -0.734000
      5 CB         106.1070   122.6700   144.9200 c3         1 SOW       0.100800
      6 CG         104.9430   121.8240   144.3040 c          1 SOW       0.553100
      7 OD1        105.0690   121.1120   143.3180 o          1 SOW      -0.599100
      8 ND2        103.7400   121.9090   144.9230 nt         1 SOW      -0.626000
      9 H          107.3120   122.6440   143.2430 hn         1 SOW       0.453000
     10 HA2        106.0310   125.2630   143.8360 h1         1 SOW       0.013700
     11 HA3        105.4470   124.1040   142.6410 h1         1 SOW       0.013700
     12 H6         106.6990   121.9830   145.5390 h1         1 SOW       0.038700
     13 H7         105.6670   123.4110   145.6010 h1         1 SOW       0.038700
     14 H8         102.9580   121.3830   144.5600 hn         1 SOW       0.295000
     15 H9         103.6280   122.4980   145.7350 hn         1 SOW       0.295000
     16 OXT        107.5190   126.3210   142.1250 o          1 SOW      -0.734000
@<TRIPOS>BOND
     1     1     2 1   
     2     1     5 1   
     3     1     9 1   
     4     2     3 1   
     5     2    10 1   
     6     2    11 1   
     7     3     4 1   
     8     3    16 1   
     9     5     6 1   
    10     5    12 1   
    11     5    13 1   
    12     6     7 2   
    13     6     8 1   
    14     8    14 1   
    15     8    15 1   
@<TRIPOS>SUBSTRUCTURE
     1 SOW         1 TEMP              0 ****  ****    0 ROOT
