@<TRIPOS>MOLECULE
SOZ
   43    46     1     0     0
SMALL
abcg2


@<TRIPOS>ATOM
      1 C4          18.2070    66.2860    44.3200 ca         1 SOZ       0.332000
      2 C5          17.4600    65.3590    43.5830 ca         1 SOZ      -0.154500
      3 C6          16.8180    64.3160    44.2330 ca         1 SOZ      -0.029500
      4 C8          18.6940    68.0120    42.5680 ca         1 SOZ       0.418900
      5 C10         17.6800    68.2590    40.5540 ca         1 SOZ       0.314500
      6 C12         19.2070    69.8480    41.0980 ca         1 SOZ       0.411900
      7 C13         19.4190    69.1660    42.2910 ca         1 SOZ      -0.122000
      8 C3          18.3200    66.1180    45.7080 ca         1 SOZ      -0.154500
      9 C1          16.9170    64.1680    45.6140 ca         1 SOZ      -0.218300
     10 C15         16.7800    67.8410    38.2310 cc         1 SOZ       0.467800
     11 C17         15.0020    66.7080    38.7140 ca         1 SOZ       0.059400
     12 C18         15.6000    67.0170    39.9500 ca         1 SOZ      -0.028200
     13 C19         13.8130    65.9850    38.6660 ca         1 SOZ      -0.029000
     14 C2          17.6850    65.0700    46.3470 ca         1 SOZ      -0.029500
     15 C20         13.2370    65.5800    39.8630 ca         1 SOZ      -0.162000
     16 C21         13.8570    65.9180    41.0650 ca         1 SOZ       0.170000
     17 C22         15.0330    66.6350    41.1610 ca         1 SOZ      -0.135000
     18 C23         17.8660    68.5030    37.4640 c3         1 SOZ      -0.105400
     19 C26         16.2470    63.0190    46.2960 c3         1 SOZ       0.347300
     20 F24         13.2700    65.5070    42.2230 f          1 SOZ      -0.184000
     21 F27         15.9980    63.2630    47.6020 f          1 SOZ      -0.113667
     22 F28         15.0640    62.6910    45.7270 f          1 SOZ      -0.113667
     23 F29         17.0000    61.8840    46.2640 f          1 SOZ      -0.113667
     24 F30         20.3100    69.6480    43.1970 f          1 SOZ      -0.180000
     25 N11         18.2940    69.3800    40.2220 nb         1 SOZ      -0.289000
     26 N14         16.7390    67.7540    39.6270 na         1 SOZ      -0.208100
     27 N16         15.7680    67.2280    37.6770 nd         1 SOZ      -0.570100
     28 N31         19.8960    70.9620    40.7740 nv         1 SOZ      -1.055900
     29 N7          18.8790    67.3760    43.7630 nu         1 SOZ      -0.928900
     30 N9          17.8240    67.5440    41.6590 nb         1 SOZ      -0.281000
     31 H51         17.3760    65.4610    42.5160 ha         1 SOZ       0.138500
     32 H61         16.2350    63.6150    43.6500 ha         1 SOZ       0.134000
     33 H31         18.9010    66.8270    46.2850 ha         1 SOZ       0.138500
     34 H191        13.3490    65.7440    37.7180 ha         1 SOZ       0.135000
     35 H21         17.7780    64.9650    47.4190 ha         1 SOZ       0.134000
     36 H201        12.3180    65.0110    39.8820 ha         1 SOZ       0.135000
     37 H221        15.4720    66.8630    42.1180 ha         1 SOZ       0.152000
     38 H232        17.7480    68.2380    36.4160 hc         1 SOZ       0.065700
     39 H233        17.8210    69.5860    37.5710 hc         1 SOZ       0.065700
     40 H231        18.8490    68.1840    37.8130 hc         1 SOZ       0.065700
     41 H311        19.5750    71.5040    39.9880 hn         1 SOZ       0.504000
     42 H312        20.4380    71.4380    41.4770 hn         1 SOZ       0.504000
     43 H71         19.5000    67.8580    44.3970 hn         1 SOZ       0.513000
@<TRIPOS>BOND
     1     1     2 ar  
     2     1     8 ar  
     3     1    29 1   
     4     2     3 ar  
     5     2    31 1   
     6     3     9 ar  
     7     3    32 1   
     8     4     7 ar  
     9     4    29 1   
    10     4    30 ar  
    11     5    25 ar  
    12     5    26 1   
    13     5    30 ar  
    14     6     7 ar  
    15     6    25 ar  
    16     6    28 1   
    17     7    24 1   
    18     8    14 ar  
    19     8    33 1   
    20     9    14 ar  
    21     9    19 1   
    22    10    18 1   
    23    10    26 1   
    24    10    27 2   
    25    11    12 ar  
    26    11    13 ar  
    27    11    27 1   
    28    12    17 ar  
    29    12    26 1   
    30    13    15 ar  
    31    13    34 1   
    32    14    35 1   
    33    15    16 ar  
    34    15    36 1   
    35    16    17 ar  
    36    16    20 1   
    37    17    37 1   
    38    18    38 1   
    39    18    39 1   
    40    18    40 1   
    41    19    21 1   
    42    19    22 1   
    43    19    23 1   
    44    28    41 1   
    45    28    42 1   
    46    29    43 1   
@<TRIPOS>SUBSTRUCTURE
     1 SOZ         1 TEMP              0 ****  ****    0 ROOT
