@<TRIPOS>MOLECULE
SOZ
   43    46     1     0     0
SMALL
No Charge or Current Charge


@<TRIPOS>ATOM
      1 C4          18.3390    66.2180    44.3010 ca         1 SOZ       0.332000
      2 C5          18.1030    65.1340    43.4370 ca         1 SOZ      -0.154500
      3 C6          17.7600    63.8710    43.9510 ca         1 SOZ      -0.029500
      4 C8          18.4690    68.1960    42.6520 ca         1 SOZ       0.418900
      5 C10         17.3780    68.3550    40.6100 ca         1 SOZ       0.314500
      6 C12         18.7660    70.0890    41.2420 ca         1 SOZ       0.411900
      7 C13         19.0730    69.4420    42.4440 ca         1 SOZ      -0.122000
      8 C3          18.2560    66.0140    45.6870 ca         1 SOZ      -0.154500
      9 C1          17.6500    63.6720    45.3430 ca         1 SOZ      -0.218300
     10 C15         16.9510    66.9810    38.6430 cc         1 SOZ       0.467800
     11 C17         14.8090    66.7370    38.8630 ca         1 SOZ       0.059400
     12 C18         15.1770    67.6260    39.8350 ca         1 SOZ      -0.028200
     13 C19         13.4680    66.3410    38.7340 ca         1 SOZ      -0.029000
     14 C2          17.9120    64.7550    46.2090 ca         1 SOZ      -0.029500
     15 C20         12.5200    66.8840    39.6310 ca         1 SOZ      -0.162000
     16 C21         12.9230    67.8020    40.6290 ca         1 SOZ       0.170000
     17 C22         14.2720    68.1900    40.7440 ca         1 SOZ      -0.135000
     18 C23         18.3810    66.8200    38.2110 c3         1 SOZ      -0.105400
     19 C26         17.2870    62.2940    45.9070 c3         1 SOZ       0.347300
     20 F24         12.0060    68.3130    41.4780 f          1 SOZ      -0.184000
     21 F27         16.6300    62.3780    47.0870 f          1 SOZ      -0.113667
     22 F28         16.4880    61.5910    45.0710 f          1 SOZ      -0.113667
     23 F29         18.3910    61.5450    46.1210 f          1 SOZ      -0.113667
     24 F30         19.9100    69.9950    43.3630 f          1 SOZ      -0.180000
     25 N11         17.9350    69.5580    40.3400 nb         1 SOZ      -0.289000
     26 N14         16.5150    67.8020    39.6800 na         1 SOZ      -0.208100
     27 N16         15.9040    66.3230    38.0990 nd         1 SOZ      -0.570100
     28 N31         19.2860    71.3020    40.9080 nv         1 SOZ      -1.055900
     29 N7          18.6940    67.4870    43.8330 nu         1 SOZ      -0.928900
     30 N9          17.6270    67.6700    41.7500 nb         1 SOZ      -0.281000
     31 H51         18.2030    65.2510    42.3640 ha         1 SOZ       0.138500
     32 H61         17.5890    63.0470    43.2600 ha         1 SOZ       0.134000
     33 H31         18.4490    66.8370    46.3690 ha         1 SOZ       0.138500
     34 H191        13.1710    65.6330    37.9640 ha         1 SOZ       0.135000
     35 H21         17.8550    64.6270    47.2880 ha         1 SOZ       0.134000
     36 H201        11.4750    66.5950    39.5560 ha         1 SOZ       0.135000
     37 H221        14.5910    68.8970    41.5050 ha         1 SOZ       0.152000
     38 H232        18.4540    66.1680    37.3330 hc         1 SOZ       0.065700
     39 H233        18.8170    67.7900    37.9500 hc         1 SOZ       0.065700
     40 H231        18.9800    66.3780    39.0140 hc         1 SOZ       0.065700
     41 H311        18.8570    71.8210    40.1450 hn         1 SOZ       0.504000
     42 H312        19.7510    71.8480    41.6300 hn         1 SOZ       0.504000
     43 H71         19.1690    68.0600    44.5300 hn         1 SOZ       0.513000
@<TRIPOS>BOND
     1     1     2 ar  
     2     1     8 ar  
     3     1    29 1   
     4     2     3 ar  
     5     2    31 1   
     6     3     9 ar  
     7     3    32 1   
     8     4     7 ar  
     9     4    29 1   
    10     4    30 ar  
    11     5    25 ar  
    12     5    26 1   
    13     5    30 ar  
    14     6     7 ar  
    15     6    25 ar  
    16     6    28 1   
    17     7    24 1   
    18     8    14 ar  
    19     8    33 1   
    20     9    14 ar  
    21     9    19 1   
    22    10    18 1   
    23    10    26 1   
    24    10    27 2   
    25    11    12 ar  
    26    11    13 ar  
    27    11    27 1   
    28    12    17 ar  
    29    12    26 1   
    30    13    15 ar  
    31    13    34 1   
    32    14    35 1   
    33    15    16 ar  
    34    15    36 1   
    35    16    17 ar  
    36    16    20 1   
    37    17    37 1   
    38    18    38 1   
    39    18    39 1   
    40    18    40 1   
    41    19    21 1   
    42    19    22 1   
    43    19    23 1   
    44    28    41 1   
    45    28    42 1   
    46    29    43 1   
@<TRIPOS>SUBSTRUCTURE
     1 SOZ         1 TEMP              0 ****  ****    0 ROOT
