@<TRIPOS>MOLECULE
SP0
   41    44     1     0     0
SMALL
bcc


@<TRIPOS>ATOM
      1 C22          1.1980    -2.0290     0.9380 ca         1 SP0      -0.067000
      2 C23          0.9380    -2.2170     2.2820 ca         1 SP0       0.117900
      3 F40          1.8420    -1.7930     3.1730 f          1 SP0      -0.134900
      4 C24         -0.2130    -2.8300     2.7350 ca         1 SP0      -0.119000
      5 C25         -1.1500    -3.2620     1.8060 ca         1 SP0      -0.120000
      6 C26         -0.9330    -3.0900     0.4490 ca         1 SP0      -0.053000
      7 C21          0.2440    -2.4800     0.0370 ca         1 SP0      -0.281500
      8 S18          0.5300    -2.2490    -1.6950 sy         1 SP0       1.310200
      9 O19          1.9380    -1.9610    -1.8800 o          1 SP0      -0.590800
     10 O20         -0.1170    -3.3170    -2.4290 o          1 SP0      -0.590800
     11 N17         -0.3090    -0.8700    -2.1040 nu         1 SP0      -0.692500
     12 C9           0.0520     0.3490    -1.5430 cc         1 SP0       0.096300
     13 C10          1.0750     1.1930    -1.8870 cd         1 SP0      -0.244300
     14 C6           1.0220     2.2210    -0.9270 cd         1 SP0       0.402800
     15 C4           1.8770     3.3860    -0.8040 cd         1 SP0      -0.111600
     16 C5           1.9060     4.3120     0.2020 cc         1 SP0      -0.121000
     17 C1           2.8760     5.3250    -0.0100 cc         1 SP0      -0.154000
     18 C2           3.5690     5.1550    -1.1700 cd         1 SP0      -0.113100
     19 S3           3.0450     3.7620    -2.0160 ss         1 SP0      -0.067800
     20 N7           0.0340     2.0180    -0.0700 nc         1 SP0      -0.487800
     21 N8          -0.5450     0.8810    -0.4380 na         1 SP0       0.154300
     22 C11         -1.6130     0.3550     0.3200 ca         1 SP0      -0.008200
     23 C12         -2.7830    -0.0620    -0.3010 ca         1 SP0      -0.098000
     24 C13         -3.8130    -0.5980     0.4560 ca         1 SP0      -0.160000
     25 C14         -3.6580    -0.6770     1.8250 ca         1 SP0       0.139900
     26 F27         -4.6530    -1.1920     2.5610 f          1 SP0      -0.135900
     27 C15         -2.5130    -0.2390     2.4640 ca         1 SP0      -0.160000
     28 C16         -1.4800     0.2720     1.7000 ca         1 SP0      -0.098000
     29 H22          2.1160    -1.5580     0.6170 ha         1 SP0       0.181000
     30 H24         -0.3820    -2.9600     3.7950 ha         1 SP0       0.155000
     31 H25         -2.0580    -3.7390     2.1480 ha         1 SP0       0.144000
     32 H26         -1.6670    -3.4360    -0.2660 ha         1 SP0       0.154000
     33 H17         -1.2700    -1.0310    -2.3790 hn         1 SP0       0.453800
     34 H10          1.7590     1.0720    -2.7110 ha         1 SP0       0.188000
     35 H5           1.2580     4.2690     1.0650 ha         1 SP0       0.162000
     36 H1           3.0520     6.1420     0.6750 ha         1 SP0       0.153000
     37 H2           4.3590     5.7690    -1.5740 h4         1 SP0       0.169000
     38 H12         -2.9210     0.0550    -1.3680 ha         1 SP0       0.154500
     39 H13         -4.7270    -0.9310    -0.0160 ha         1 SP0       0.159000
     40 H15         -2.4180    -0.3150     3.5380 ha         1 SP0       0.159000
     41 H16         -0.5700     0.6060     2.1790 ha         1 SP0       0.154500
@<TRIPOS>BOND
     1     1     2 ar  
     2     1     7 ar  
     3     1    29 1   
     4     2     3 1   
     5     2     4 ar  
     6     4     5 ar  
     7     4    30 1   
     8     5     6 ar  
     9     5    31 1   
    10     6     7 ar  
    11     6    32 1   
    12     7     8 1   
    13     8     9 2   
    14     8    10 2   
    15     8    11 1   
    16    11    12 1   
    17    11    33 1   
    18    12    13 2   
    19    12    21 1   
    20    13    14 1   
    21    13    34 1   
    22    14    15 1   
    23    14    20 2   
    24    15    16 2   
    25    15    19 1   
    26    16    17 1   
    27    16    35 1   
    28    17    18 2   
    29    17    36 1   
    30    18    19 1   
    31    18    37 1   
    32    20    21 1   
    33    21    22 1   
    34    22    23 ar  
    35    22    28 ar  
    36    23    24 ar  
    37    23    38 1   
    38    24    25 ar  
    39    24    39 1   
    40    25    26 1   
    41    25    27 ar  
    42    27    28 ar  
    43    27    40 1   
    44    28    41 1   
@<TRIPOS>SUBSTRUCTURE
     1 SP0         1 TEMP              0 ****  ****    0 ROOT
