@<TRIPOS>MOLECULE
SP0
   41    44     1     0     0
SMALL
No Charge or Current Charge


@<TRIPOS>ATOM
      1 C22          1.8880    -1.8180     0.4250 ca         1 SP0      -0.049000
      2 C23          2.1760    -1.7330     1.7970 ca         1 SP0       0.153000
      3 F40          3.3440    -1.1920     2.2060 f          1 SP0      -0.170000
      4 C24          1.2540    -2.2020     2.7460 ca         1 SP0      -0.101000
      5 C25          0.0350    -2.7590     2.3220 ca         1 SP0      -0.102000
      6 C26         -0.2630    -2.8460     0.9500 ca         1 SP0      -0.035000
      7 C21          0.6640    -2.3780    -0.0060 ca         1 SP0      -0.281500
      8 S18          0.2600    -2.4330    -1.7590 sy         1 SP0       1.168600
      9 O19          1.4690    -2.2860    -2.5740 o          1 SP0      -0.520000
     10 O20         -0.7520    -3.4580    -2.0160 o          1 SP0      -0.520000
     11 N17         -0.5860    -1.0110    -2.0230 nu         1 SP0      -0.886100
     12 C9          -0.2260     0.1760    -1.4170 cc         1 SP0       0.184000
     13 C10          0.9080     0.9160    -1.5370 cd         1 SP0      -0.161000
     14 C6           0.7990     1.9970    -0.6260 cd         1 SP0       0.337500
     15 C4           1.8230     2.9920    -0.4690 cd         1 SP0      -0.256500
     16 C5           1.7190     4.0320     0.4210 cc         1 SP0      -0.103000
     17 C1           2.8510     4.8830     0.4010 cc         1 SP0      -0.136000
     18 C2           3.8180     4.4990    -0.4960 cd         1 SP0      -0.240000
     19 S3           3.3460     3.0290    -1.3730 ss         1 SP0       0.222000
     20 N7          -0.3230     1.9920     0.0740 nc         1 SP0      -0.487800
     21 N8          -0.9350     0.8690    -0.4340 na         1 SP0       0.205000
     22 C11         -2.1440     0.4290     0.1040 ca         1 SP0      -0.008200
     23 C12         -3.3090     0.4010    -0.6890 ca         1 SP0      -0.080000
     24 C13         -4.5200    -0.0660    -0.1470 ca         1 SP0      -0.142000
     25 C14         -4.5670    -0.5050     1.1860 ca         1 SP0       0.175000
     26 F27         -5.7310    -0.9550     1.7040 f          1 SP0      -0.171000
     27 C15         -3.4120    -0.4790     1.9820 ca         1 SP0      -0.142000
     28 C16         -2.2010    -0.0100     1.4430 ca         1 SP0      -0.080000
     29 H22          2.6140    -1.4400    -0.2930 ha         1 SP0       0.163000
     30 H24          1.4850    -2.1300     3.8060 ha         1 SP0       0.137000
     31 H25         -0.6830    -3.1200     3.0560 ha         1 SP0       0.126000
     32 H26         -1.2170    -3.2700     0.6380 ha         1 SP0       0.136000
     33 H17         -1.5390    -1.3010    -1.8450 hn         1 SP0       0.509000
     34 H10          1.7370     0.7040    -2.1980 ha         1 SP0       0.170000
     35 H5           0.8720     4.2070     1.0800 ha         1 SP0       0.144000
     36 H1           2.9310     5.7550     1.0450 ha         1 SP0       0.135000
     37 H2           4.7700     4.9740    -0.7020 h4         1 SP0       0.151000
     38 H12         -3.2760     0.7440    -1.7220 ha         1 SP0       0.136500
     39 H13         -5.4210    -0.0880    -0.7560 ha         1 SP0       0.141000
     40 H15         -3.4570    -0.8210     3.0130 ha         1 SP0       0.141000
     41 H16         -1.3040     0.0060     2.0600 ha         1 SP0       0.136500
@<TRIPOS>BOND
     1     1     2 ar  
     2     1     7 ar  
     3     1    29 1   
     4     2     3 1   
     5     2     4 ar  
     6     4     5 ar  
     7     4    30 1   
     8     5     6 ar  
     9     5    31 1   
    10     6     7 ar  
    11     6    32 1   
    12     7     8 1   
    13     8     9 2   
    14     8    10 2   
    15     8    11 1   
    16    11    12 1   
    17    11    33 1   
    18    12    13 2   
    19    12    21 1   
    20    13    14 1   
    21    13    34 1   
    22    14    15 1   
    23    14    20 2   
    24    15    16 2   
    25    15    19 1   
    26    16    17 1   
    27    16    35 1   
    28    17    18 2   
    29    17    36 1   
    30    18    19 1   
    31    18    37 1   
    32    20    21 1   
    33    21    22 1   
    34    22    23 ar  
    35    22    28 ar  
    36    23    24 ar  
    37    23    38 1   
    38    24    25 ar  
    39    24    39 1   
    40    25    26 1   
    41    25    27 ar  
    42    27    28 ar  
    43    27    40 1   
    44    28    41 1   
@<TRIPOS>SUBSTRUCTURE
     1 SP0         1 TEMP              0 ****  ****    0 ROOT
