@<TRIPOS>MOLECULE
SP1
   34    37     1     0     0
SMALL
bcc


@<TRIPOS>ATOM
      1 P           -3.6840     0.3850     0.5270 p5         1 SP1       1.181200
      2 S1P         -3.5020     2.1460     1.2670 s          1 SP1      -0.574000
      3 O2P         -4.9760    -0.4500     0.9020 oh         1 SP1      -0.671400
      4 O5          -3.7120     0.3070    -1.0810 os         1 SP1      -0.530200
      5 C5          -2.4950     0.4260    -1.8390 c6         1 SP1       0.181400
      6 C4          -1.5810    -0.6580    -1.3050 c5         1 SP1       0.049100
      7 O4          -0.2790    -0.6570    -1.8500 os         1 SP1      -0.380600
      8 C3          -1.3290    -0.4400     0.1770 c5         1 SP1       0.111100
      9 O3          -2.5070    -0.6540     0.9310 os         1 SP1      -0.467200
     10 C2          -0.1780    -1.3900     0.4290 c5         1 SP1       0.132100
     11 O2          -0.6710    -2.6920     0.4820 oh         1 SP1      -0.567800
     12 C1           0.6250    -1.1300    -0.8790 c5         1 SP1       0.224800
     13 N9           1.6580    -0.1290    -0.7050 na         1 SP1      -0.282000
     14 C8           1.6500     1.1910    -1.0690 cc         1 SP1       0.417700
     15 N7           2.7490     1.8140    -0.7600 nd         1 SP1      -0.541100
     16 C7           3.5270     0.8600    -0.1570 ca         1 SP1      -0.226200
     17 C6           4.8180     0.8830     0.4030 ca         1 SP1       0.785200
     18 N6           5.5730     1.9810     0.4330 nv         1 SP1      -0.948500
     19 N1           5.2930    -0.2530     0.9280 nb         1 SP1      -0.825000
     20 C10          4.5380    -1.3480     0.9010 ca         1 SP1       0.716900
     21 N3           3.3200    -1.4940     0.4070 nb         1 SP1      -0.768000
     22 C9           2.8650    -0.3560    -0.1120 ca         1 SP1       0.451800
     23 HOP2        -5.5950     0.0250     1.4730 ho         1 SP1       0.501000
     24 H5'1        -2.0640     1.4250    -1.7230 h1         1 SP1       0.088200
     25 H5'2        -2.7660     0.2810    -2.8830 h1         1 SP1       0.088200
     26 H4          -2.0640    -1.6290    -1.4680 h1         1 SP1       0.103700
     27 H3          -0.9630     0.5830     0.3460 h1         1 SP1       0.087700
     28 H2           0.4120    -1.1270     1.3120 h1         1 SP1       0.092700
     29 HO2          0.0450    -3.2870     0.7260 ho         1 SP1       0.427000
     30 H1           1.1110    -2.0500    -1.2180 h2         1 SP1       0.110700
     31 H8           0.8090     1.6410    -1.5730 h5         1 SP1       0.073800
     32 HN61         6.5020     1.9470     0.8170 hn         1 SP1       0.454800
     33 HN62         5.2660     2.8360     0.0040 hn         1 SP1       0.454800
     34 H6           4.9830    -2.2320     1.3440 h5         1 SP1       0.048100
@<TRIPOS>BOND
     1     1     2 2   
     2     1     3 1   
     3     1     4 1   
     4     1     9 1   
     5     3    23 1   
     6     4     5 1   
     7     5     6 1   
     8     5    24 1   
     9     5    25 1   
    10     6     7 1   
    11     6     8 1   
    12     6    26 1   
    13     7    12 1   
    14     8     9 1   
    15     8    10 1   
    16     8    27 1   
    17    10    11 1   
    18    10    12 1   
    19    10    28 1   
    20    11    29 1   
    21    12    13 1   
    22    12    30 1   
    23    13    14 1   
    24    13    22 1   
    25    14    15 2   
    26    14    31 1   
    27    15    16 1   
    28    16    17 ar  
    29    16    22 ar  
    30    17    18 1   
    31    17    19 ar  
    32    18    32 1   
    33    18    33 1   
    34    19    20 ar  
    35    20    21 ar  
    36    20    34 1   
    37    21    22 ar  
@<TRIPOS>SUBSTRUCTURE
     1 SP1         1 TEMP              0 ****  ****    0 ROOT
