@<TRIPOS>MOLECULE
SP1
   34    37     1     0     0
SMALL
No Charge or Current Charge


@<TRIPOS>ATOM
      1 P           -3.9700     0.5630    -0.1920 p5         1 SP1       1.181200
      2 S1P         -3.9750     2.5130    -0.0570 s          1 SP1      -0.574000
      3 O2P         -5.3610    -0.1550     0.1580 oh         1 SP1      -0.470400
      4 O5          -3.6610    -0.0790    -1.6560 os         1 SP1      -0.353400
      5 C5          -2.2920    -0.1740    -2.1280 c6         1 SP1       0.004600
      6 C4          -1.4430    -0.8560    -1.0340 c5         1 SP1       0.072300
      7 O4          -0.0250    -0.7900    -1.2320 os         1 SP1      -0.427000
      8 C3          -1.5610    -0.1610     0.3310 c5         1 SP1      -0.065700
      9 O3          -2.9400    -0.2560     0.7670 os         1 SP1      -0.290400
     10 C2          -0.5680    -1.0310     1.1490 c5         1 SP1       0.155300
     11 O2          -1.1030    -2.3410     1.4310 oh         1 SP1      -0.690000
     12 C1           0.5970    -1.0790     0.0610 c5         1 SP1       0.277300
     13 N9           1.7260    -0.1620     0.2350 na         1 SP1      -0.311300
     14 C8           1.6920     1.0870     0.8690 cc         1 SP1       0.417700
     15 N7           2.9080     1.6640     0.8860 nd         1 SP1      -0.541100
     16 C7           3.7180     0.7280     0.2360 ca         1 SP1      -0.095600
     17 C6           5.0980     0.7780    -0.0490 ca         1 SP1       0.456900
     18 N6           5.8820     1.8320     0.3010 nv         1 SP1      -1.058900
     19 N1           5.7100    -0.2260    -0.6980 nb         1 SP1      -0.299000
     20 C10          4.9250    -1.2740    -1.0470 ca         1 SP1       0.190900
     21 N3           3.5970    -1.4070    -0.8120 nb         1 SP1      -0.242000
     22 C9           3.0140    -0.3800    -0.1640 ca         1 SP1       0.123500
     23 HOP2        -5.9800     0.1940    -0.5040 ho         1 SP1       0.300000
     24 H5'1        -1.9080     0.8340    -2.3450 h1         1 SP1       0.088200
     25 H5'2        -2.2670    -0.7640    -3.0550 h1         1 SP1       0.088200
     26 H4          -1.7470    -1.9130    -0.9830 h1         1 SP1       0.103700
     27 H3          -1.2490     0.8930     0.2900 h1         1 SP1       0.087700
     28 H2          -0.2510    -0.5270     2.0740 h1         1 SP1       0.092700
     29 HO2         -0.5960    -2.7120     2.1920 ho         1 SP1       0.526000
     30 H1           1.0320    -2.0860     0.0440 h2         1 SP1       0.110700
     31 H8           0.7840     1.5090     1.2830 h5         1 SP1       0.073800
     32 HN61         6.7700     1.9450    -0.1810 hn         1 SP1       0.510000
     33 HN62         5.4070     2.6850     0.5870 hn         1 SP1       0.510000
     34 H6           5.4120    -2.0950    -1.5720 h5         1 SP1       0.048100
@<TRIPOS>BOND
     1     1     2 2   
     2     1     3 1   
     3     1     4 1   
     4     1     9 1   
     5     3    23 1   
     6     4     5 1   
     7     5     6 1   
     8     5    24 1   
     9     5    25 1   
    10     6     7 1   
    11     6     8 1   
    12     6    26 1   
    13     7    12 1   
    14     8     9 1   
    15     8    10 1   
    16     8    27 1   
    17    10    11 1   
    18    10    12 1   
    19    10    28 1   
    20    11    29 1   
    21    12    13 1   
    22    12    30 1   
    23    13    14 1   
    24    13    22 1   
    25    14    15 2   
    26    14    31 1   
    27    15    16 1   
    28    16    17 ar  
    29    16    22 ar  
    30    17    18 1   
    31    17    19 ar  
    32    18    32 1   
    33    18    33 1   
    34    19    20 ar  
    35    20    21 ar  
    36    20    34 1   
    37    21    22 ar  
@<TRIPOS>SUBSTRUCTURE
     1 SP1         1 TEMP              0 ****  ****    0 ROOT
