@<TRIPOS>MOLECULE
SP2
  104   103     1     0     0
SMALL
No Charge or Current Charge


@<TRIPOS>ATOM
      1 CMA         26.1060   117.4950     6.1530 c3         1 SP2       0.148900
      2 O1          27.4090   117.3760     6.7710 os         1 SP2      -0.472000
      3 C1          27.7000   118.1740     7.9490 c3         1 SP2       0.182000
      4 CM1         29.1650   117.8340     8.3120 c3         1 SP2      -0.097600
      5 CM2         27.5910   119.6770     7.5780 c3         1 SP2      -0.097600
      6 C2          26.7160   117.8050     9.1060 c3         1 SP2      -0.097400
      7 C3          26.6420   116.3020     9.4830 c3         1 SP2      -0.069400
      8 C4          25.6010   116.0100    10.5870 c3         1 SP2      -0.044200
      9 C5          25.5580   114.5390    10.9790 c2         1 SP2      -0.092400
     10 CM3         24.8600   113.6640     9.9470 c3         1 SP2      -0.057900
     11 C6          26.1250   114.0800    12.1200 ce         1 SP2      -0.194000
     12 C7          26.1600   112.6740    12.5510 ce         1 SP2      -0.164000
     13 C8          26.7180   112.2530    13.7220 cf         1 SP2      -0.181000
     14 C9          26.8070   110.8770    14.2200 cf         1 SP2      -0.060200
     15 CM4         25.9190   109.8270    13.5580 c3         1 SP2      -0.055900
     16 C10         27.6190   110.5890    15.2820 ce         1 SP2      -0.180000
     17 C11         27.8330   109.2760    15.9120 ce         1 SP2      -0.169000
     18 C12         28.6170   109.0810    17.0110 cf         1 SP2      -0.175000
     19 C13         28.8970   107.8110    17.6900 cf         1 SP2      -0.065200
     20 CM5         27.9770   106.6310    17.3850 c3         1 SP2      -0.055900
     21 C14         29.9100   107.7380    18.6040 ce         1 SP2      -0.176000
     22 C15         30.3280   106.5490    19.3730 ce         1 SP2      -0.170000
     23 C16         31.2790   106.4960    20.3500 cf         1 SP2      -0.167000
     24 C17         32.0930   107.6080    20.8490 cf         1 SP2      -0.180000
     25 C18         32.9810   107.5770    21.8880 ce         1 SP2      -0.061200
     26 CM6         33.2010   106.3380    22.7540 c3         1 SP2      -0.056900
     27 C19         33.7240   108.8000    22.2560 ce         1 SP2      -0.181000
     28 C20         34.8040   108.8920    23.0840 cf         1 SP2      -0.164000
     29 C21         35.4920   110.1430    23.3870 cf         1 SP2      -0.193000
     30 C22         36.5520   110.2870    24.2210 c2         1 SP2      -0.095400
     31 CM7         37.2060   109.1440    24.9870 c3         1 SP2      -0.056900
     32 C23         37.2320   111.6310    24.4420 c3         1 SP2      -0.042200
     33 C24         38.5620   111.7620    23.6700 c3         1 SP2      -0.036200
     34 C25         39.2040   113.1250    23.8580 c2         1 SP2      -0.223200
     35 C26         39.0060   114.2340    23.1200 c2         1 SP2      -0.110400
     36 CM8         38.0390   114.3420    21.9460 c3         1 SP2      -0.055900
     37 C27         39.7340   115.5380    23.4160 c3         1 SP2      -0.039200
     38 C28         40.8630   115.8470    22.4090 c3         1 SP2      -0.035200
     39 C29         41.6340   117.1030    22.7790 c2         1 SP2      -0.225200
     40 C30         42.7050   117.1980    23.5890 c2         1 SP2      -0.113400
     41 CMB         43.4060   118.5180    23.8570 c3         1 SP2      -0.055900
     42 CM9         43.3510   116.0400    24.3370 c3         1 SP2      -0.055900
     43 HMA1        26.0420   116.8250     5.2860 h1         1 SP2       0.027367
     44 HMA2        25.3030   117.2150     6.8460 h1         1 SP2       0.027367
     45 HMA3        25.9220   118.5160     5.7940 h1         1 SP2       0.027367
     46 HM11        29.4590   118.3260     9.2470 hc         1 SP2       0.042533
     47 HM12        29.3070   116.7540     8.4350 hc         1 SP2       0.042533
     48 HM13        29.8490   118.1710     7.5240 hc         1 SP2       0.042533
     49 HM21        27.9950   120.3000     8.3850 hc         1 SP2       0.042533
     50 HM22        28.1590   119.8980     6.6660 hc         1 SP2       0.042533
     51 HM23        26.5500   119.9820     7.4210 hc         1 SP2       0.042533
     52 H21A        27.0100   118.3700    10.0000 hc         1 SP2       0.041200
     53 H22         25.7090   118.1590     8.8570 hc         1 SP2       0.041200
     54 H31         26.3950   115.7120     8.5930 hc         1 SP2       0.049200
     55 H32         27.6230   115.9590     9.8320 hc         1 SP2       0.049200
     56 H41         25.8440   116.6240    11.4640 hc         1 SP2       0.043700
     57 H42         24.6120   116.3470    10.2540 hc         1 SP2       0.043700
     58 HM31        24.2370   112.8980    10.4230 hc         1 SP2       0.042033
     59 HM32        24.1980   114.2430     9.2910 hc         1 SP2       0.042033
     60 HM33        25.5920   113.1540     9.3090 hc         1 SP2       0.042033
     61 H6          26.6110   114.7910    12.7910 ha         1 SP2       0.168000
     62 H7          25.7300   111.9370    11.8740 ha         1 SP2       0.171000
     63 H8          27.1680   113.0190    14.3580 ha         1 SP2       0.169000
     64 HM41        25.6060   109.0460    14.2590 hc         1 SP2       0.042367
     65 HM42        24.9890   110.2590    13.1710 hc         1 SP2       0.042367
     66 HM43        26.4380   109.3400    12.7240 hc         1 SP2       0.042367
     67 H10         28.1920   111.4120    15.7140 ha         1 SP2       0.168000
     68 H11         27.3520   108.4160    15.4480 ha         1 SP2       0.172000
     69 H12         29.1120   109.9610    17.4270 ha         1 SP2       0.169000
     70 HM51        27.8420   105.9770    18.2530 hc         1 SP2       0.042367
     71 HM52        26.9680   106.9560    17.1070 hc         1 SP2       0.042367
     72 HM53        28.3730   106.0230    16.5640 hc         1 SP2       0.042367
     73 H14         30.4850   108.6470    18.7730 ha         1 SP2       0.169000
     74 H15         29.8320   105.6080    19.1310 ha         1 SP2       0.170000
     75 H16         31.4530   105.5160    20.7970 ha         1 SP2       0.170000
     76 H17         31.9930   108.5560    20.3230 ha         1 SP2       0.170000
     77 HM61        33.4490   106.5990    23.7890 hc         1 SP2       0.042367
     78 HM62        32.3040   105.7130    22.8200 hc         1 SP2       0.042367
     79 HM63        34.0140   105.7180    22.3590 hc         1 SP2       0.042367
     80 H19         33.3720   109.7230    21.7930 ha         1 SP2       0.169000
     81 H20         35.2000   107.9830    23.5360 ha         1 SP2       0.171000
     82 H21         35.1120   111.0330    22.8800 ha         1 SP2       0.168000
     83 HM71        37.7930   109.5020    25.8420 hc         1 SP2       0.041367
     84 HM72        36.4610   108.4480    25.3880 hc         1 SP2       0.041367
     85 HM73        37.8830   108.5760    24.3380 hc         1 SP2       0.041367
     86 H231        36.5670   112.4440    24.1230 hc         1 SP2       0.047700
     87 H232        37.4140   111.8010    25.5100 hc         1 SP2       0.047700
     88 H241        39.2560   110.9810    24.0080 hc         1 SP2       0.046200
     89 H242        38.3820   111.5580    22.6080 hc         1 SP2       0.046200
     90 H25         39.9130   113.1520    24.6870 ha         1 SP2       0.165000
     91 HM81        37.3430   115.1780    22.0870 hc         1 SP2       0.040033
     92 HM82        38.5740   114.5100    21.0040 hc         1 SP2       0.040033
     93 HM83        37.4280   113.4430    21.8150 hc         1 SP2       0.040033
     94 H271        39.0260   116.3760    23.4390 hc         1 SP2       0.045200
     95 H272        40.1770   115.4960    24.4190 hc         1 SP2       0.045200
     96 H281        41.5350   114.9820    22.3490 hc         1 SP2       0.045200
     97 H282        40.4380   115.9640    21.4060 hc         1 SP2       0.045200
     98 H29         41.2460   118.0000    22.2930 ha         1 SP2       0.164000
     99 HMB1        44.4580   118.4760    23.5470 hc         1 SP2       0.039033
    100 HMB2        42.9370   119.3460    23.3130 hc         1 SP2       0.039033
    101 HMB3        43.3810   118.7690    24.9240 hc         1 SP2       0.039033
    102 HM91        44.3840   115.8860    24.0030 hc         1 SP2       0.039033
    103 HM92        43.3770   116.2380    25.4150 hc         1 SP2       0.039033
    104 HM93        42.8190   115.0930    24.2000 hc         1 SP2       0.039033
@<TRIPOS>BOND
     1     1     2 1   
     2     1    43 1   
     3     1    44 1   
     4     1    45 1   
     5     2     3 1   
     6     3     4 1   
     7     3     5 1   
     8     3     6 1   
     9     4    46 1   
    10     4    47 1   
    11     4    48 1   
    12     5    49 1   
    13     5    50 1   
    14     5    51 1   
    15     6     7 1   
    16     6    52 1   
    17     6    53 1   
    18     7     8 1   
    19     7    54 1   
    20     7    55 1   
    21     8     9 1   
    22     8    56 1   
    23     8    57 1   
    24     9    10 1   
    25     9    11 2   
    26    10    58 1   
    27    10    59 1   
    28    10    60 1   
    29    11    12 1   
    30    11    61 1   
    31    12    13 2   
    32    12    62 1   
    33    13    14 1   
    34    13    63 1   
    35    14    15 1   
    36    14    16 2   
    37    15    64 1   
    38    15    65 1   
    39    15    66 1   
    40    16    17 1   
    41    16    67 1   
    42    17    18 2   
    43    17    68 1   
    44    18    19 1   
    45    18    69 1   
    46    19    20 1   
    47    19    21 2   
    48    20    70 1   
    49    20    71 1   
    50    20    72 1   
    51    21    22 1   
    52    21    73 1   
    53    22    23 2   
    54    22    74 1   
    55    23    24 1   
    56    23    75 1   
    57    24    25 2   
    58    24    76 1   
    59    25    26 1   
    60    25    27 1   
    61    26    77 1   
    62    26    78 1   
    63    26    79 1   
    64    27    28 2   
    65    27    80 1   
    66    28    29 1   
    67    28    81 1   
    68    29    30 2   
    69    29    82 1   
    70    30    31 1   
    71    30    32 1   
    72    31    83 1   
    73    31    84 1   
    74    31    85 1   
    75    32    33 1   
    76    32    86 1   
    77    32    87 1   
    78    33    34 1   
    79    33    88 1   
    80    33    89 1   
    81    34    35 2   
    82    34    90 1   
    83    35    36 1   
    84    35    37 1   
    85    36    91 1   
    86    36    92 1   
    87    36    93 1   
    88    37    38 1   
    89    37    94 1   
    90    37    95 1   
    91    38    39 1   
    92    38    96 1   
    93    38    97 1   
    94    39    40 2   
    95    39    98 1   
    96    40    41 1   
    97    40    42 1   
    98    41    99 1   
    99    41   100 1   
   100    41   101 1   
   101    42   102 1   
   102    42   103 1   
   103    42   104 1   
@<TRIPOS>SUBSTRUCTURE
     1 SP2         1 TEMP              0 ****  ****    0 ROOT
