@<TRIPOS>MOLECULE
SP2
  104   103     1     0     0
SMALL
abcg2


@<TRIPOS>ATOM
      1 CMA         25.1600   117.9730     6.7580 c3         1 SP2       0.148900
      2 O1          26.5180   117.5700     6.6850 os         1 SP2      -0.472000
      3 C1          27.4200   118.1000     7.6880 c3         1 SP2       0.182000
      4 CM1         28.7590   117.4480     7.3590 c3         1 SP2      -0.097600
      5 CM2         27.5390   119.6200     7.5500 c3         1 SP2      -0.097600
      6 C2          26.9500   117.7440     9.1080 c3         1 SP2      -0.097400
      7 C3          26.7180   116.2600     9.3740 c3         1 SP2      -0.069400
      8 C4          26.1340   116.0240    10.7760 c3         1 SP2      -0.044200
      9 C5          25.9000   114.5760    11.1100 c2         1 SP2      -0.092400
     10 CM3         24.8860   113.8650    10.2620 c3         1 SP2      -0.057900
     11 C6          26.5840   113.9930    12.1180 ce         1 SP2      -0.194000
     12 C7          26.4740   112.6310    12.5740 ce         1 SP2      -0.164000
     13 C8          27.2060   112.1310    13.5990 cf         1 SP2      -0.181000
     14 C9          27.1310   110.7870    14.1220 cf         1 SP2      -0.060200
     15 CM4         26.1540   109.8310    13.4970 c3         1 SP2      -0.055900
     16 C10         27.9450   110.4500    15.1650 ce         1 SP2      -0.180000
     17 C11         28.0210   109.1930    15.8410 ce         1 SP2      -0.169000
     18 C12         28.8660   108.9600    16.8800 cf         1 SP2      -0.175000
     19 C13         28.9900   107.7280    17.6130 cf         1 SP2      -0.065200
     20 CM5         28.1120   106.5710    17.2230 c3         1 SP2      -0.055900
     21 C14         29.9010   107.6730    18.6320 ce         1 SP2      -0.176000
     22 C15         30.1860   106.5580    19.4770 ce         1 SP2      -0.170000
     23 C16         31.1000   106.5240    20.4930 cf         1 SP2      -0.167000
     24 C17         31.9420   107.5990    20.9120 cf         1 SP2      -0.180000
     25 C18         32.8690   107.5780    21.9170 ce         1 SP2      -0.061200
     26 CM6         33.1500   106.3670    22.7620 c3         1 SP2      -0.056900
     27 C19         33.6170   108.7840    22.1800 ce         1 SP2      -0.181000
     28 C20         34.5780   108.9400    23.1210 cf         1 SP2      -0.164000
     29 C21         35.2820   110.1790    23.3270 cf         1 SP2      -0.193000
     30 C22         36.2560   110.4280    24.2280 c2         1 SP2      -0.095400
     31 CM7         36.7820   109.4190    25.2040 c3         1 SP2      -0.056900
     32 C23         36.8950   111.7890    24.2860 c3         1 SP2      -0.042200
     33 C24         38.3320   111.8190    23.7150 c3         1 SP2      -0.036200
     34 C25         38.9620   113.1720    23.8550 c2         1 SP2      -0.223200
     35 C26         39.1410   114.0950    22.9040 c2         1 SP2      -0.110400
     36 CM8         38.7230   113.9230    21.4690 c3         1 SP2      -0.055900
     37 C27         39.8030   115.4100    23.2330 c3         1 SP2      -0.039200
     38 C28         41.2310   115.5410    22.6600 c3         1 SP2      -0.035200
     39 C29         41.8180   116.8980    22.9090 c2         1 SP2      -0.225200
     40 C30         42.7450   117.2400    23.8090 c2         1 SP2      -0.113400
     41 CMB         43.2080   118.6650    23.9420 c3         1 SP2      -0.055900
     42 CM9         43.4030   116.2800    24.7610 c3         1 SP2      -0.055900
     43 HMA1        24.6590   117.5190     5.9030 h1         1 SP2       0.027367
     44 HMA2        24.6740   117.6220     7.6730 h1         1 SP2       0.027367
     45 HMA3        25.0450   119.0590     6.6930 h1         1 SP2       0.027367
     46 HM11        29.5150   117.7460     8.0880 hc         1 SP2       0.042533
     47 HM12        28.6770   116.3610     7.3680 hc         1 SP2       0.042533
     48 HM13        29.0930   117.7590     6.3670 hc         1 SP2       0.042533
     49 HM21        28.3280   119.9910     8.2070 hc         1 SP2       0.042533
     50 HM22        27.7920   119.8870     6.5220 hc         1 SP2       0.042533
     51 HM23        26.6130   120.1270     7.8260 hc         1 SP2       0.042533
     52 H21A        27.6960   118.1310     9.8080 hc         1 SP2       0.041200
     53 H22         26.0280   118.2930     9.3210 hc         1 SP2       0.041200
     54 H31         26.0430   115.8550     8.6180 hc         1 SP2       0.049200
     55 H32         27.6570   115.7070     9.2860 hc         1 SP2       0.049200
     56 H41         26.8010   116.4670    11.5200 hc         1 SP2       0.043700
     57 H42         25.1790   116.5620    10.8400 hc         1 SP2       0.043700
     58 HM31        24.6220   112.8830    10.6460 hc         1 SP2       0.042033
     59 HM32        23.9720   114.4630    10.1870 hc         1 SP2       0.042033
     60 HM33        25.2560   113.7360     9.2400 hc         1 SP2       0.042033
     61 H6          27.2960   114.6120    12.6600 ha         1 SP2       0.168000
     62 H7          25.7670   111.9820    12.0720 ha         1 SP2       0.171000
     63 H8          27.9170   112.7920    14.0900 ha         1 SP2       0.169000
     64 HM41        26.1850   108.8450    13.9550 hc         1 SP2       0.042367
     65 HM42        25.1330   110.2120    13.5840 hc         1 SP2       0.042367
     66 HM43        26.3570   109.7140    12.4290 hc         1 SP2       0.042367
     67 H10         28.6130   111.2250    15.5360 ha         1 SP2       0.168000
     68 H11         27.3700   108.3930    15.5100 ha         1 SP2       0.172000
     69 H12         29.5140   109.7720    17.2020 ha         1 SP2       0.169000
     70 HM51        28.2850   105.6910    17.8350 hc         1 SP2       0.042367
     71 HM52        27.0560   106.8420    17.3130 hc         1 SP2       0.042367
     72 HM53        28.2780   106.2940    16.1790 hc         1 SP2       0.042367
     73 H14         30.4680   108.5810    18.8080 ha         1 SP2       0.169000
     74 H15         29.6300   105.6450    19.3040 ha         1 SP2       0.170000
     75 H16         31.1870   105.5860    21.0270 ha         1 SP2       0.170000
     76 H17         31.8420   108.5390    20.3810 ha         1 SP2       0.170000
     77 HM61        32.9800   106.5880    23.8190 hc         1 SP2       0.042367
     78 HM62        32.5320   105.5150    22.4930 hc         1 SP2       0.042367
     79 HM63        34.1970   106.0670    22.6680 hc         1 SP2       0.042367
     80 H19         33.3730   109.6380    21.5520 ha         1 SP2       0.169000
     81 H20         34.8360   108.0980    23.7520 ha         1 SP2       0.171000
     82 H21         34.9840   110.9990    22.6770 ha         1 SP2       0.168000
     83 HM71        36.6770   109.7960    26.2260 hc         1 SP2       0.041367
     84 HM72        36.2790   108.4570    25.1420 hc         1 SP2       0.041367
     85 HM73        37.8520   109.2490    25.0470 hc         1 SP2       0.041367
     86 H231        36.2900   112.5070    23.7290 hc         1 SP2       0.047700
     87 H232        36.9310   112.1320    25.3270 hc         1 SP2       0.047700
     88 H241        38.9430   111.0870    24.2520 hc         1 SP2       0.046200
     89 H242        38.2990   111.4960    22.6740 hc         1 SP2       0.046200
     90 H25         39.2790   113.4270    24.8640 ha         1 SP2       0.165000
     91 HM81        38.0930   114.7630    21.1610 hc         1 SP2       0.040033
     92 HM82        39.5890   113.9220    20.8010 hc         1 SP2       0.040033
     93 HM83        38.1670   113.0040    21.2990 hc         1 SP2       0.040033
     94 H271        39.1950   116.2330    22.8410 hc         1 SP2       0.045200
     95 H272        39.8550   115.5370    24.3170 hc         1 SP2       0.045200
     96 H281        41.8500   114.7520    23.0900 hc         1 SP2       0.045200
     97 H282        41.1990   115.3620    21.5810 hc         1 SP2       0.045200
     98 H29         41.4030   117.6940    22.2940 ha         1 SP2       0.164000
     99 HMB1        44.2870   118.7400    23.7710 hc         1 SP2       0.039033
    100 HMB2        42.7010   119.3230    23.2360 hc         1 SP2       0.039033
    101 HMB3        43.0280   119.0390    24.9560 hc         1 SP2       0.039033
    102 HM91        44.4880   116.2790    24.6140 hc         1 SP2       0.039033
    103 HM92        43.2320   116.5990    25.7940 hc         1 SP2       0.039033
    104 HM93        43.0430   115.2590    24.6580 hc         1 SP2       0.039033
@<TRIPOS>BOND
     1     1     2 1   
     2     1    43 1   
     3     1    44 1   
     4     1    45 1   
     5     2     3 1   
     6     3     4 1   
     7     3     5 1   
     8     3     6 1   
     9     4    46 1   
    10     4    47 1   
    11     4    48 1   
    12     5    49 1   
    13     5    50 1   
    14     5    51 1   
    15     6     7 1   
    16     6    52 1   
    17     6    53 1   
    18     7     8 1   
    19     7    54 1   
    20     7    55 1   
    21     8     9 1   
    22     8    56 1   
    23     8    57 1   
    24     9    10 1   
    25     9    11 2   
    26    10    58 1   
    27    10    59 1   
    28    10    60 1   
    29    11    12 1   
    30    11    61 1   
    31    12    13 2   
    32    12    62 1   
    33    13    14 1   
    34    13    63 1   
    35    14    15 1   
    36    14    16 2   
    37    15    64 1   
    38    15    65 1   
    39    15    66 1   
    40    16    17 1   
    41    16    67 1   
    42    17    18 2   
    43    17    68 1   
    44    18    19 1   
    45    18    69 1   
    46    19    20 1   
    47    19    21 2   
    48    20    70 1   
    49    20    71 1   
    50    20    72 1   
    51    21    22 1   
    52    21    73 1   
    53    22    23 2   
    54    22    74 1   
    55    23    24 1   
    56    23    75 1   
    57    24    25 2   
    58    24    76 1   
    59    25    26 1   
    60    25    27 1   
    61    26    77 1   
    62    26    78 1   
    63    26    79 1   
    64    27    28 2   
    65    27    80 1   
    66    28    29 1   
    67    28    81 1   
    68    29    30 2   
    69    29    82 1   
    70    30    31 1   
    71    30    32 1   
    72    31    83 1   
    73    31    84 1   
    74    31    85 1   
    75    32    33 1   
    76    32    86 1   
    77    32    87 1   
    78    33    34 1   
    79    33    88 1   
    80    33    89 1   
    81    34    35 2   
    82    34    90 1   
    83    35    36 1   
    84    35    37 1   
    85    36    91 1   
    86    36    92 1   
    87    36    93 1   
    88    37    38 1   
    89    37    94 1   
    90    37    95 1   
    91    38    39 1   
    92    38    96 1   
    93    38    97 1   
    94    39    40 2   
    95    39    98 1   
    96    40    41 1   
    97    40    42 1   
    98    41    99 1   
    99    41   100 1   
   100    41   101 1   
   101    42   102 1   
   102    42   103 1   
   103    42   104 1   
@<TRIPOS>SUBSTRUCTURE
     1 SP2         1 TEMP              0 ****  ****    0 ROOT
