@<TRIPOS>MOLECULE
SP3
   47    50     1     0     0
SMALL
bcc


@<TRIPOS>ATOM
      1 C30         -3.1030    -0.8620    -0.1230 ca         1 SP3      -0.104500
      2 C31         -3.4740    -1.9860     0.5980 ca         1 SP3      -0.161500
      3 C32         -2.8810    -2.2140     1.8230 ca         1 SP3       0.144900
      4 F35         -3.2480    -3.2840     2.5350 f          1 SP3      -0.126900
      5 C33         -1.9300    -1.3560     2.3450 ca         1 SP3      -0.161500
      6 C34         -1.5460    -0.2510     1.6070 ca         1 SP3      -0.104500
      7 C29         -2.1270    -0.0060     0.3690 ca         1 SP3      -0.014200
      8 N8          -1.7160     1.1220    -0.3680 na         1 SP3       0.155300
      9 N7          -1.5640     2.2920     0.2410 nc         1 SP3      -0.482800
     10 C6          -1.1090     3.1260    -0.6780 cd         1 SP3       0.404800
     11 C3          -0.8230     4.5070    -0.3420 cd         1 SP3      -0.118600
     12 C2          -0.9180     5.1140     0.8790 cc         1 SP3      -0.117000
     13 C1          -0.5520     6.4810     0.8420 cc         1 SP3      -0.153000
     14 C5          -0.1860     6.8920    -0.4030 cd         1 SP3      -0.113100
     15 S4          -0.2830     5.6190    -1.5410 ss         1 SP3      -0.063800
     16 C10         -0.9760     2.4810    -1.9240 cd         1 SP3      -0.248300
     17 C9          -1.3750     1.1930    -1.6890 cc         1 SP3       0.091300
     18 N11         -1.3420     0.0960    -2.5400 nu         1 SP3      -0.690500
     19 S12          0.1050    -0.6840    -2.8280 sy         1 SP3       1.321200
     20 O13          1.0640     0.3130    -3.2350 o          1 SP3      -0.586300
     21 O14         -0.2400    -1.8250    -3.6440 o          1 SP3      -0.586300
     22 C15          0.6010    -1.2680    -1.2210 ca         1 SP3      -0.316500
     23 C16          0.1200    -2.4900    -0.7750 ca         1 SP3       0.043500
     24 C20          1.4320    -0.4860    -0.4410 ca         1 SP3       0.043500
     25 C19          1.7880    -0.9420     0.8230 ca         1 SP3      -0.226300
     26 C25          2.6420    -0.0710     1.6970 c3         1 SP3       0.727200
     27 F28          3.1930    -0.7540     2.7020 f          1 SP3      -0.226800
     28 F26          3.6280     0.5010     1.0070 f          1 SP3      -0.226800
     29 F27          1.9160     0.9150     2.2390 f          1 SP3      -0.226800
     30 C18          1.3230    -2.1630     1.2810 ca         1 SP3       0.016000
     31 C17          0.4880    -2.9340     0.4820 ca         1 SP3      -0.226300
     32 C21          0.0410    -4.2820     0.9710 c3         1 SP3       0.727200
     33 F24          0.9750    -5.2090     0.7360 f          1 SP3      -0.226800
     34 F22         -0.1820    -4.2760     2.2880 f          1 SP3      -0.226800
     35 F23         -1.0800    -4.6820     0.3710 f          1 SP3      -0.226800
     36 H30         -3.6270    -0.6450    -1.0440 ha         1 SP3       0.155000
     37 H31         -4.2320    -2.6540     0.2160 ha         1 SP3       0.161500
     38 H33         -1.4940    -1.5520     3.3140 ha         1 SP3       0.161500
     39 H34         -0.7970     0.4260     1.9930 ha         1 SP3       0.155000
     40 H2          -1.2400     4.5930     1.7690 ha         1 SP3       0.164000
     41 H1          -0.5580     7.1320     1.7030 ha         1 SP3       0.154000
     42 H5           0.1380     7.8730    -0.7120 h4         1 SP3       0.170000
     43 H10         -0.6260     2.8790    -2.8610 ha         1 SP3       0.189000
     44 H11         -2.1530    -0.5000    -2.6300 hn         1 SP3       0.455800
     45 H16         -0.5230    -3.0840    -1.4110 ha         1 SP3       0.176500
     46 H20          1.8010     0.4590    -0.8180 ha         1 SP3       0.176500
     47 H18          1.6040    -2.5170     2.2630 ha         1 SP3       0.168000
@<TRIPOS>BOND
     1     1     2 ar  
     2     1     7 ar  
     3     1    36 1   
     4     2     3 ar  
     5     2    37 1   
     6     3     4 1   
     7     3     5 ar  
     8     5     6 ar  
     9     5    38 1   
    10     6     7 ar  
    11     6    39 1   
    12     7     8 1   
    13     8     9 1   
    14     8    17 1   
    15     9    10 2   
    16    10    11 1   
    17    10    16 1   
    18    11    12 2   
    19    11    15 1   
    20    12    13 1   
    21    12    40 1   
    22    13    14 2   
    23    13    41 1   
    24    14    15 1   
    25    14    42 1   
    26    16    17 2   
    27    16    43 1   
    28    17    18 1   
    29    18    19 1   
    30    18    44 1   
    31    19    20 2   
    32    19    21 2   
    33    19    22 1   
    34    22    23 ar  
    35    22    24 ar  
    36    23    31 ar  
    37    23    45 1   
    38    24    25 ar  
    39    24    46 1   
    40    25    26 1   
    41    25    30 ar  
    42    26    27 1   
    43    26    28 1   
    44    26    29 1   
    45    30    31 ar  
    46    30    47 1   
    47    31    32 1   
    48    32    33 1   
    49    32    34 1   
    50    32    35 1   
@<TRIPOS>SUBSTRUCTURE
     1 SP3         1 TEMP              0 ****  ****    0 ROOT
