@<TRIPOS>MOLECULE
SP3
   47    50     1     0     0
SMALL
No Charge or Current Charge


@<TRIPOS>ATOM
      1 C30         -3.9330    -0.7000    -0.3930 ca         1 SP3      -0.086500
      2 C31         -4.5950    -1.8300     0.1220 ca         1 SP3      -0.143500
      3 C32         -4.0600    -2.5130     1.2260 ca         1 SP3       0.180000
      4 F35         -4.6960    -3.5980     1.7180 f          1 SP3      -0.162000
      5 C33         -2.8680    -2.0740     1.8210 ca         1 SP3      -0.143500
      6 C34         -2.2030    -0.9450     1.3080 ca         1 SP3      -0.086500
      7 C29         -2.7310    -0.2550     0.1960 ca         1 SP3      -0.014200
      8 N8          -2.0570     0.8510    -0.3230 na         1 SP3       0.206000
      9 N7          -1.8100     1.9420     0.4790 nc         1 SP3      -0.482800
     10 C6          -1.0800     2.6850    -0.3360 cd         1 SP3       0.339500
     11 C3          -0.5270     3.9570     0.0360 cd         1 SP3      -0.263500
     12 C2          -0.7220     4.5170     1.2750 cc         1 SP3      -0.099000
     13 C1          -0.0710     5.7670     1.4160 cc         1 SP3      -0.135000
     14 C5           0.6190     6.1630     0.2970 cd         1 SP3      -0.240000
     15 S4           0.4820     4.9680    -1.0090 ss         1 SP3       0.226000
     16 C10         -0.8640     2.0940    -1.6060 cd         1 SP3      -0.165000
     17 C9          -1.5000     0.8930    -1.6030 cc         1 SP3       0.179000
     18 N11         -1.5040    -0.1120    -2.5510 nu         1 SP3      -0.884100
     19 S12         -0.1200    -0.9870    -2.9070 sy         1 SP3       1.179600
     20 O13          0.6350    -0.1090    -3.8030 o          1 SP3      -0.515500
     21 O14         -0.6550    -2.2830    -3.3260 o          1 SP3      -0.515500
     22 C15          0.7050    -1.1340    -1.3250 ca         1 SP3      -0.316500
     23 C16          0.4250    -2.2280    -0.4870 ca         1 SP3       0.061500
     24 C20          1.5730    -0.1150    -0.8980 ca         1 SP3       0.061500
     25 C19          2.1560    -0.1720     0.3820 ca         1 SP3      -0.226300
     26 C25          3.0760     0.9600     0.8440 c3         1 SP3       0.363300
     27 F28          3.2150     1.0070     2.1890 f          1 SP3      -0.105500
     28 F26          4.3160     0.8280     0.3230 f          1 SP3      -0.105500
     29 F27          2.6130     2.1730     0.4630 f          1 SP3      -0.105500
     30 C18          1.8830    -1.2770     1.2160 ca         1 SP3       0.034000
     31 C17          1.0160    -2.3050     0.7920 ca         1 SP3      -0.226300
     32 C21          0.7330    -3.4820     1.7280 c3         1 SP3       0.363300
     33 F24          1.8110    -4.2900     1.8410 f          1 SP3      -0.105500
     34 F22          0.4210    -3.0620     2.9750 f          1 SP3      -0.105500
     35 F23         -0.2960    -4.2550     1.3130 f          1 SP3      -0.105500
     36 H30         -4.3560    -0.1690    -1.2430 ha         1 SP3       0.137000
     37 H31         -5.5220    -2.1760    -0.3290 ha         1 SP3       0.143500
     38 H33         -2.4620    -2.6070     2.6770 ha         1 SP3       0.143500
     39 H34         -1.2760    -0.6080     1.7680 ha         1 SP3       0.137000
     40 H2          -1.3050     4.0710     2.0770 ha         1 SP3       0.146000
     41 H1          -0.1220     6.3450     2.3350 ha         1 SP3       0.136000
     42 H5           1.1960     7.0680     0.1490 h4         1 SP3       0.152000
     43 H10         -0.2810     2.5010    -2.4220 ha         1 SP3       0.171000
     44 H11         -2.1700    -0.8530    -2.3710 hn         1 SP3       0.511000
     45 H16         -0.2580    -3.0080    -0.8240 ha         1 SP3       0.158500
     46 H20          1.7810     0.7340    -1.5500 ha         1 SP3       0.158500
     47 H18          2.3410    -1.3410     2.2020 ha         1 SP3       0.150000
@<TRIPOS>BOND
     1     1     2 ar  
     2     1     7 ar  
     3     1    36 1   
     4     2     3 ar  
     5     2    37 1   
     6     3     4 1   
     7     3     5 ar  
     8     5     6 ar  
     9     5    38 1   
    10     6     7 ar  
    11     6    39 1   
    12     7     8 1   
    13     8     9 1   
    14     8    17 1   
    15     9    10 2   
    16    10    11 1   
    17    10    16 1   
    18    11    12 2   
    19    11    15 1   
    20    12    13 1   
    21    12    40 1   
    22    13    14 2   
    23    13    41 1   
    24    14    15 1   
    25    14    42 1   
    26    16    17 2   
    27    16    43 1   
    28    17    18 1   
    29    18    19 1   
    30    18    44 1   
    31    19    20 2   
    32    19    21 2   
    33    19    22 1   
    34    22    23 ar  
    35    22    24 ar  
    36    23    31 ar  
    37    23    45 1   
    38    24    25 ar  
    39    24    46 1   
    40    25    26 1   
    41    25    30 ar  
    42    26    27 1   
    43    26    28 1   
    44    26    29 1   
    45    30    31 ar  
    46    30    47 1   
    47    31    32 1   
    48    32    33 1   
    49    32    34 1   
    50    32    35 1   
@<TRIPOS>SUBSTRUCTURE
     1 SP3         1 TEMP              0 ****  ****    0 ROOT
