@<TRIPOS>MOLECULE
SP5
   45    44     1     0     0
SMALL
bcc


@<TRIPOS>ATOM
      1 CAB          8.6650    -1.0600    -0.0140 c3         1 SP5      -0.178100
      2 CAC          7.5810    -0.0110    -0.0180 c          1 SP5       0.665100
      3 OAA          7.8390     1.1870    -0.0510 o          1 SP5      -0.610100
      4 NAD          6.3240    -0.4750     0.0180 ns         1 SP5      -0.577900
      5 CAE          5.1630     0.3910     0.0210 c3         1 SP5       0.105000
      6 CAF          3.8850    -0.4320     0.0270 c3         1 SP5      -0.099400
      7 CAG          2.6480     0.4530     0.0280 c3         1 SP5       0.162800
      8 NAH          1.4380    -0.3450     0.0340 n7         1 SP5      -0.808200
      9 CAI          0.2290     0.4570     0.0330 c3         1 SP5       0.160800
     10 CAJ         -1.0160    -0.4160     0.0200 c3         1 SP5      -0.078400
     11 CAK         -2.3020     0.4000     0.0180 c3         1 SP5      -0.079400
     12 CAL         -3.5450    -0.4770     0.0070 c3         1 SP5       0.160800
     13 NAM         -4.7580     0.3180    -0.0190 n7         1 SP5      -0.806200
     14 CAN         -5.9620    -0.4900    -0.0150 c3         1 SP5       0.160800
     15 CAO         -7.2130     0.3740    -0.0280 c3         1 SP5      -0.083400
     16 CAP         -8.4880    -0.4560    -0.0340 c3         1 SP5       0.149800
     17 NAQ         -9.6650     0.4010    -0.0600 n8         1 SP5      -0.883800
     18 HAB          9.3060    -0.9160     0.8550 hc         1 SP5       0.059033
     19 HABA         8.2840    -2.0790     0.0050 hc         1 SP5       0.059033
     20 HABB         9.2880    -0.9420    -0.9000 hc         1 SP5       0.059033
     21 HNAD         6.1750    -1.4700     0.0490 hn         1 SP5       0.312500
     22 HAE          5.1870     1.0450     0.8980 h1         1 SP5       0.051200
     23 HAEA         5.1830     1.0410    -0.8580 h1         1 SP5       0.051200
     24 HAF          3.8670    -1.0820    -0.8540 hc         1 SP5       0.049200
     25 HAFA         3.8630    -1.0820     0.9060 hc         1 SP5       0.049200
     26 HAG          2.6510     1.0780     0.9270 h1         1 SP5       0.033200
     27 HAGA         2.6940     1.1460    -0.8280 h1         1 SP5       0.033200
     28 HNAH         1.4350    -0.9350    -0.7910 hn         1 SP5       0.348800
     29 HAI          0.2270     1.0750     0.9370 h1         1 SP5       0.030200
     30 HAIA         0.1900     1.1590    -0.8170 h1         1 SP5       0.030200
     31 HAJ         -0.9950    -1.0630    -0.8640 hc         1 SP5       0.044700
     32 HAJA        -0.9960    -1.0800     0.8900 hc         1 SP5       0.044700
     33 HAK         -2.3230     1.0490     0.9010 hc         1 SP5       0.046200
     34 HAKA        -2.3220     1.0610    -0.8540 hc         1 SP5       0.046200
     35 HAL         -3.5300    -1.1080    -0.8880 h1         1 SP5       0.027700
     36 HALA        -3.5100    -1.1670     0.8660 h1         1 SP5       0.027700
     37 HNAM        -4.7680     0.9200     0.7980 hn         1 SP5       0.350800
     38 HAN         -5.9510    -1.1230    -0.9090 h1         1 SP5       0.026700
     39 HANA        -6.0050    -1.1800     0.8450 h1         1 SP5       0.026700
     40 HAO         -7.2200     1.0330     0.8460 hc         1 SP5       0.053700
     41 HAOA        -7.1910     1.0220    -0.9110 hc         1 SP5       0.053700
     42 HAP         -8.4460    -1.1670    -0.8720 h1         1 SP5       0.025200
     43 HAPA        -8.5250    -1.0610     0.8770 h1         1 SP5       0.025200
     44 HNAQ        -9.7020     0.8840    -0.9500 hn         1 SP5       0.337300
     45 HNAA       -10.4990    -0.1720    -0.0290 hn         1 SP5       0.337300
@<TRIPOS>BOND
     1     1     2 1   
     2     1    18 1   
     3     1    19 1   
     4     1    20 1   
     5     2     3 2   
     6     2     4 1   
     7     4     5 1   
     8     4    21 1   
     9     5     6 1   
    10     5    22 1   
    11     5    23 1   
    12     6     7 1   
    13     6    24 1   
    14     6    25 1   
    15     7     8 1   
    16     7    26 1   
    17     7    27 1   
    18     8     9 1   
    19     8    28 1   
    20     9    10 1   
    21     9    29 1   
    22     9    30 1   
    23    10    11 1   
    24    10    31 1   
    25    10    32 1   
    26    11    12 1   
    27    11    33 1   
    28    11    34 1   
    29    12    13 1   
    30    12    35 1   
    31    12    36 1   
    32    13    14 1   
    33    13    37 1   
    34    14    15 1   
    35    14    38 1   
    36    14    39 1   
    37    15    16 1   
    38    15    40 1   
    39    15    41 1   
    40    16    17 1   
    41    16    42 1   
    42    16    43 1   
    43    17    44 1   
    44    17    45 1   
@<TRIPOS>SUBSTRUCTURE
     1 SP5         1 TEMP              0 ****  ****    0 ROOT
