@<TRIPOS>MOLECULE
SP5
   45    44     1     0     0
SMALL
No Charge or Current Charge


@<TRIPOS>ATOM
      1 CAB          8.7640    -1.1550     0.0520 c3         1 SP5      -0.178100
      2 CAC          7.7300    -0.0380    -0.0050 c          1 SP5       0.598100
      3 OAA          8.0370     1.1430    -0.0710 o          1 SP5      -0.610100
      4 NAD          6.4210    -0.4590     0.0240 ns         1 SP5      -0.510900
      5 CAE          5.2650     0.4370    -0.0200 c3         1 SP5       0.105000
      6 CAF          3.9390    -0.3440    -0.0010 c3         1 SP5      -0.099400
      7 CAG          2.7090     0.5820    -0.0460 c3         1 SP5       0.162800
      8 NAH          1.4720    -0.2170    -0.0150 n7         1 SP5      -0.863400
      9 CAI          0.2230     0.5640    -0.0400 c3         1 SP5       0.160800
     10 CAJ         -0.9960    -0.3800     0.0100 c3         1 SP5      -0.078400
     11 CAK         -2.3430     0.3770    -0.0080 c3         1 SP5      -0.079400
     12 CAL         -3.5610    -0.5670     0.0420 c3         1 SP5       0.160800
     13 NAM         -4.8110     0.2130     0.0160 n7         1 SP5      -0.861400
     14 CAN         -6.0480    -0.5880     0.0450 c3         1 SP5       0.160800
     15 CAO         -7.2840     0.3320    -0.0030 c3         1 SP5      -0.083400
     16 CAP         -8.6060    -0.4610     0.0130 c3         1 SP5       0.149800
     17 NAQ         -9.7780     0.4330    -0.0260 n8         1 SP5      -0.994200
     18 HAB          8.5780    -1.7690     0.9410 hc         1 SP5       0.059033
     19 HABA         8.5710    -1.8620    -0.7630 hc         1 SP5       0.059033
     20 HABB         9.7930    -0.7800     0.0260 hc         1 SP5       0.059033
     21 HNAD         6.2630    -1.4580     0.0800 hn         1 SP5       0.312500
     22 HAE          5.3080     1.1120     0.8460 h1         1 SP5       0.051200
     23 HAEA         5.3220     1.0430    -0.9340 h1         1 SP5       0.051200
     24 HAF          3.9110    -1.0270    -0.8590 hc         1 SP5       0.049200
     25 HAFA         3.8960    -0.9580     0.9080 hc         1 SP5       0.049200
     26 HAG          2.7440     1.2660     0.8140 h1         1 SP5       0.033200
     27 HAGA         2.7510     1.1910    -0.9600 h1         1 SP5       0.033200
     28 HNAH         1.4750    -0.8400    -0.8320 hn         1 SP5       0.404000
     29 HAI          0.1820     1.2460     0.8200 h1         1 SP5       0.030200
     30 HAIA         0.1690     1.1710    -0.9540 h1         1 SP5       0.030200
     31 HAJ         -0.9580    -1.0660    -0.8460 hc         1 SP5       0.044700
     32 HAJA        -0.9400    -0.9930     0.9180 hc         1 SP5       0.044700
     33 HAK         -2.3810     1.0630     0.8470 hc         1 SP5       0.046200
     34 HAKA        -2.3990     0.9900    -0.9160 hc         1 SP5       0.046200
     35 HAL         -3.5210    -1.2500    -0.8180 h1         1 SP5       0.027700
     36 HALA        -3.5080    -1.1740     0.9560 h1         1 SP5       0.027700
     37 HNAM        -4.8150     0.8350     0.8340 hn         1 SP5       0.406000
     38 HAN         -6.0780    -1.2730    -0.8140 h1         1 SP5       0.026700
     39 HANA        -6.0890    -1.1950     0.9600 h1         1 SP5       0.026700
     40 HAO         -7.2610     1.0140     0.8550 hc         1 SP5       0.053700
     41 HAOA        -7.2390     0.9460    -0.9110 hc         1 SP5       0.053700
     42 HAP         -8.6460    -1.1320    -0.8560 h1         1 SP5       0.025200
     43 HAPA        -8.6600    -1.0700     0.9260 h1         1 SP5       0.025200
     44 HNAQ        -9.7790     0.9430    -0.9180 hn         1 SP5       0.392500
     45 HNAA       -10.6320    -0.1360    -0.0740 hn         1 SP5       0.392500
@<TRIPOS>BOND
     1     1     2 1   
     2     1    18 1   
     3     1    19 1   
     4     1    20 1   
     5     2     3 2   
     6     2     4 1   
     7     4     5 1   
     8     4    21 1   
     9     5     6 1   
    10     5    22 1   
    11     5    23 1   
    12     6     7 1   
    13     6    24 1   
    14     6    25 1   
    15     7     8 1   
    16     7    26 1   
    17     7    27 1   
    18     8     9 1   
    19     8    28 1   
    20     9    10 1   
    21     9    29 1   
    22     9    30 1   
    23    10    11 1   
    24    10    31 1   
    25    10    32 1   
    26    11    12 1   
    27    11    33 1   
    28    11    34 1   
    29    12    13 1   
    30    12    35 1   
    31    12    36 1   
    32    13    14 1   
    33    13    37 1   
    34    14    15 1   
    35    14    38 1   
    36    14    39 1   
    37    15    16 1   
    38    15    40 1   
    39    15    41 1   
    40    16    17 1   
    41    16    42 1   
    42    16    43 1   
    43    17    44 1   
    44    17    45 1   
@<TRIPOS>SUBSTRUCTURE
     1 SP5         1 TEMP              0 ****  ****    0 ROOT
