@<TRIPOS>MOLECULE
SP6
   44    47     1     0     0
SMALL
No Charge or Current Charge


@<TRIPOS>ATOM
      1 N1           0.6900    -0.6010     1.9610 n          1 SP6      -0.019800
      2 C4          -0.3240     1.1780     5.1120 c3         1 SP6       0.143300
      3 C5           0.0490     0.3240     2.8040 c          1 SP6       0.584800
      4 C6           0.5980    -0.6880     0.5840 cc         1 SP6       0.006000
      5 C7           1.4120    -2.0040    -1.4180 c          1 SP6       0.645700
      6 C8           1.3480    -1.7110     0.0240 cd         1 SP6      -0.311600
      7 C10          2.0220     4.8000     5.6420 ca         1 SP6      -0.100000
      8 C13          1.0180     4.7490     4.6620 ca         1 SP6      -0.116000
      9 C15          0.2570     3.5790     4.4910 ca         1 SP6      -0.085500
     10 C17          1.5050     2.5080     6.2830 ca         1 SP6      -0.085500
     11 C20         -0.2630    -0.3150    -4.2300 ca         1 SP6      -0.106300
     12 C21          0.4980     2.4500     5.2990 ca         1 SP6      -0.115300
     13 O3           2.0850    -2.9160    -1.8790 o          1 SP6      -0.482000
     14 O4           0.6520    -1.1630    -2.1830 os         1 SP6      -0.433100
     15 C11          0.6460    -1.3640    -3.6050 c3         1 SP6       0.216900
     16 C16         -1.6360    -0.5800    -4.4110 ca         1 SP6      -0.083500
     17 C18         -2.4750     0.3900    -4.9870 ca         1 SP6      -0.114000
     18 C14          0.2590     0.9320    -4.6280 ca         1 SP6      -0.083500
     19 C12         -0.5810     1.9010    -5.2040 ca         1 SP6      -0.114000
     20 C9          -1.9480     1.6310    -5.3840 ca         1 SP6      -0.094000
     21 C3           1.5150    -1.5640     2.4450 cc         1 SP6      -0.054000
     22 S1           2.2320    -2.6370     1.2630 ss         1 SP6       0.238000
     23 C2           1.7790    -1.7050     3.7810 cd         1 SP6      -0.372200
     24 C1           1.1590    -0.7850     4.7520 c          1 SP6       0.595200
     25 O1           1.3720    -0.8850     5.9500 o          1 SP6      -0.520000
     26 O2          -0.6990     1.1850     2.3550 o          1 SP6      -0.526000
     27 N6           0.3130     0.2020     4.1910 n          1 SP6      -0.367400
     28 C19          2.2650     3.6790     6.4530 ca         1 SP6      -0.116000
     29 H41         -0.4940     0.7130     6.0920 h1         1 SP6       0.078700
     30 H42         -1.3220     1.4440     4.7370 h1         1 SP6       0.078700
     31 H61         -0.0430     0.0450     0.1060 h4         1 SP6       0.201000
     32 H10          2.6100     5.7050     5.7740 ha         1 SP6       0.112000
     33 H13          0.8280     5.6170     4.0330 ha         1 SP6       0.114000
     34 H15         -0.5180     3.5520     3.7280 ha         1 SP6       0.120000
     35 H17          1.7010     1.6470     6.9180 ha         1 SP6       0.120000
     36 H111         0.2750    -2.3680    -3.8560 h1         1 SP6       0.059700
     37 H112         1.6590    -1.2660    -4.0180 h1         1 SP6       0.059700
     38 H16         -2.0520    -1.5370    -4.1040 ha         1 SP6       0.115000
     39 H18         -3.5330     0.1800    -5.1240 ha         1 SP6       0.117000
     40 H14          1.3160     1.1510    -4.4890 ha         1 SP6       0.115000
     41 H12         -0.1720     2.8620    -5.5090 ha         1 SP6       0.117000
     42 H9          -2.5980     2.3810    -5.8300 ha         1 SP6       0.115000
     43 H2           2.4320    -2.4670     4.1930 ha         1 SP6       0.234000
     44 H19          3.0410     3.7160     7.2140 ha         1 SP6       0.114000
@<TRIPOS>BOND
     1     1     3 1   
     2     1     4 1   
     3     1    21 1   
     4     2    12 1   
     5     2    27 1   
     6     2    29 1   
     7     2    30 1   
     8     3    26 2   
     9     3    27 1   
    10     4     6 2   
    11     4    31 1   
    12     5     6 1   
    13     5    13 2   
    14     5    14 1   
    15     6    22 1   
    16     7     8 ar  
    17     7    28 ar  
    18     7    32 1   
    19     8     9 ar  
    20     8    33 1   
    21     9    12 ar  
    22     9    34 1   
    23    10    12 ar  
    24    10    28 ar  
    25    10    35 1   
    26    11    15 1   
    27    11    16 ar  
    28    11    18 ar  
    29    14    15 1   
    30    15    36 1   
    31    15    37 1   
    32    16    17 ar  
    33    16    38 1   
    34    17    20 ar  
    35    17    39 1   
    36    18    19 ar  
    37    18    40 1   
    38    19    20 ar  
    39    19    41 1   
    40    20    42 1   
    41    21    22 1   
    42    21    23 2   
    43    23    24 1   
    44    23    43 1   
    45    24    25 2   
    46    24    27 1   
    47    28    44 1   
@<TRIPOS>SUBSTRUCTURE
     1 SP6         1 TEMP              0 ****  ****    0 ROOT
