@<TRIPOS>MOLECULE
SP6
   44    47     1     0     0
SMALL
abcg2


@<TRIPOS>ATOM
      1 N1           0.6920    -0.6710     2.0750 n          1 SP6      -0.019800
      2 C4          -0.2810     1.0860     5.1370 c3         1 SP6       0.143300
      3 C5           0.1080     0.2830     2.9110 c          1 SP6       0.584800
      4 C6           0.5740    -0.6320     0.7020 cc         1 SP6       0.006000
      5 C7           1.3290    -1.9590    -1.3190 c          1 SP6       0.645700
      6 C8           1.2100    -1.6470     0.1050 cd         1 SP6      -0.311600
      7 C10          1.8350     4.8270     5.1830 ca         1 SP6      -0.100000
      8 C13          0.5380     4.7640     4.6920 ca         1 SP6      -0.116000
      9 C15         -0.1390     3.5520     4.6690 ca         1 SP6      -0.085500
     10 C17          1.7660     2.4660     5.6400 ca         1 SP6      -0.085500
     11 C20         -0.1400    -0.2370    -4.1150 ca         1 SP6      -0.106300
     12 C21          0.4670     2.3930     5.1440 ca         1 SP6      -0.115300
     13 O3           1.9640    -2.9070    -1.7120 o          1 SP6      -0.482000
     14 O4           0.6760    -1.1000    -2.0750 os         1 SP6      -0.433100
     15 C11          0.7200    -1.2970    -3.5040 c3         1 SP6       0.216900
     16 C16         -1.5200    -0.4070    -4.1830 ca         1 SP6      -0.083500
     17 C18         -2.3250     0.5840    -4.7250 ca         1 SP6      -0.114000
     18 C14          0.4240     0.9390    -4.5990 ca         1 SP6      -0.083500
     19 C12         -0.3790     1.9320    -5.1450 ca         1 SP6      -0.114000
     20 C9          -1.7550     1.7560    -5.2060 ca         1 SP6      -0.094000
     21 C3           1.4280    -1.7280     2.5600 cc         1 SP6      -0.054000
     22 S1           1.9960    -2.7100     1.2520 ss         1 SP6       0.238000
     23 C2           1.6330    -1.9010     3.8820 cd         1 SP6      -0.372200
     24 C1           1.0800    -0.9590     4.8090 c          1 SP6       0.595200
     25 O1           1.2290    -1.0240     6.0160 o          1 SP6      -0.520000
     26 O2          -0.5380     1.1920     2.4490 o          1 SP6      -0.526000
     27 N6           0.3250     0.0920     4.2460 n          1 SP6      -0.367400
     28 C19          2.4480     3.6740     5.6560 ca         1 SP6      -0.116000
     29 H41         -0.3010     0.6520     6.1330 h1         1 SP6       0.078700
     30 H42         -1.3150     1.2380     4.8320 h1         1 SP6       0.078700
     31 H61          0.0160     0.1620     0.2330 h4         1 SP6       0.201000
     32 H10          2.3650     5.7710     5.2020 ha         1 SP6       0.112000
     33 H13          0.0530     5.6590     4.3240 ha         1 SP6       0.114000
     34 H15         -1.1480     3.5060     4.2780 ha         1 SP6       0.120000
     35 H17          2.2490     1.5760     6.0270 ha         1 SP6       0.120000
     36 H111         0.3510    -2.2960    -3.7440 h1         1 SP6       0.059700
     37 H112         1.7530    -1.2190    -3.8480 h1         1 SP6       0.059700
     38 H16         -1.9690    -1.3220    -3.8130 ha         1 SP6       0.115000
     39 H18         -3.3970     0.4410    -4.7750 ha         1 SP6       0.117000
     40 H14          1.4980     1.0790    -4.5540 ha         1 SP6       0.115000
     41 H12          0.0700     2.8410    -5.5230 ha         1 SP6       0.117000
     42 H9          -2.3810     2.5300    -5.6320 ha         1 SP6       0.115000
     43 H2           2.2100    -2.7310     4.2590 ha         1 SP6       0.234000
     44 H19          3.4570     3.7170     6.0460 ha         1 SP6       0.114000
@<TRIPOS>BOND
     1     1     3 1   
     2     1     4 1   
     3     1    21 1   
     4     2    12 1   
     5     2    27 1   
     6     2    29 1   
     7     2    30 1   
     8     3    26 2   
     9     3    27 1   
    10     4     6 2   
    11     4    31 1   
    12     5     6 1   
    13     5    13 2   
    14     5    14 1   
    15     6    22 1   
    16     7     8 ar  
    17     7    28 ar  
    18     7    32 1   
    19     8     9 ar  
    20     8    33 1   
    21     9    12 ar  
    22     9    34 1   
    23    10    12 ar  
    24    10    28 ar  
    25    10    35 1   
    26    11    15 1   
    27    11    16 ar  
    28    11    18 ar  
    29    14    15 1   
    30    15    36 1   
    31    15    37 1   
    32    16    17 ar  
    33    16    38 1   
    34    17    20 ar  
    35    17    39 1   
    36    18    19 ar  
    37    18    40 1   
    38    19    20 ar  
    39    19    41 1   
    40    20    42 1   
    41    21    22 1   
    42    21    23 2   
    43    23    24 1   
    44    23    43 1   
    45    24    25 2   
    46    24    27 1   
    47    28    44 1   
@<TRIPOS>SUBSTRUCTURE
     1 SP6         1 TEMP              0 ****  ****    0 ROOT
