@<TRIPOS>MOLECULE
SP7
   37    36     1     0     0
SMALL
No Charge or Current Charge


@<TRIPOS>ATOM
      1 CAC         -4.4370     2.3450    -0.6630 c3         1 SP7      -0.180100
      2 CAD         -4.1540     1.1030     0.1720 c          1 SP7       0.600100
      3 OAA         -4.6560     0.9210     1.2720 o          1 SP7      -0.612100
      4 NAE         -3.2870     0.2050    -0.4090 ns         1 SP7      -0.508900
      5 CAF         -2.8700    -1.0660     0.1880 c3         1 SP7       0.112700
      6 CAB         -3.8590    -2.1830    -0.1980 c3         1 SP7      -0.108100
      7 CAG         -1.4150    -1.4120    -0.2030 c3         1 SP7      -0.094400
      8 CAH         -0.3840    -0.3640     0.2670 c3         1 SP7       0.160800
      9 NAI          0.9760    -0.7870    -0.1110 n7         1 SP7      -0.864400
     10 CAJ          2.0500     0.1450     0.2740 c3         1 SP7       0.160800
     11 CAK          3.4180    -0.3990    -0.1860 c3         1 SP7      -0.079400
     12 CAL          4.5920     0.5350     0.1830 c3         1 SP7      -0.078400
     13 CAM          5.9590    -0.0090    -0.2810 c3         1 SP7       0.149800
     14 NAN          7.0570     0.9050     0.0830 n8         1 SP7      -0.995200
     15 HAC         -3.4870     2.8300    -0.9130 hc         1 SP7       0.059033
     16 HACA        -4.8070     2.0360    -1.6470 hc         1 SP7       0.059033
     17 HACB        -5.1280     3.0370    -0.1690 hc         1 SP7       0.059033
     18 HNAE        -2.9310     0.4470    -1.3260 hn         1 SP7       0.310500
     19 HAF         -2.9000    -0.9590     1.2820 h1         1 SP7       0.076700
     20 HAB         -3.5760    -3.1300     0.2770 hc         1 SP7       0.042367
     21 HABA        -4.8750    -1.9310     0.1280 hc         1 SP7       0.042367
     22 HABB        -3.8730    -2.3340    -1.2850 hc         1 SP7       0.042367
     23 HAG         -1.1550    -2.3840     0.2340 hc         1 SP7       0.050700
     24 HAGA        -1.3480    -1.5230    -1.2920 hc         1 SP7       0.050700
     25 HAH         -0.6180     0.6080    -0.1890 h1         1 SP7       0.033200
     26 HAHA        -0.4600    -0.2500     1.3570 h1         1 SP7       0.033200
     27 HNAI         1.1650    -1.6920     0.3360 hn         1 SP7       0.403000
     28 HAJ          1.8840     1.1300    -0.1840 h1         1 SP7       0.029700
     29 HAJA         2.0660     0.2800     1.3650 h1         1 SP7       0.029700
     30 HAK          3.5870    -1.3840     0.2660 hc         1 SP7       0.043700
     31 HAKA         3.4010    -0.5420    -1.2740 hc         1 SP7       0.043700
     32 HAL          4.4230     1.5200    -0.2700 hc         1 SP7       0.046200
     33 HALA         4.6080     0.6780     1.2700 hc         1 SP7       0.046200
     34 HAM          6.1460    -0.9870     0.1830 h1         1 SP7       0.026700
     35 HAMA         5.9550    -0.1360    -1.3730 h1         1 SP7       0.026700
     36 HNAN         7.1190     0.9610     1.1070 hn         1 SP7       0.391500
     37 HNAA         7.9510     0.4780    -0.1890 hn         1 SP7       0.391500
@<TRIPOS>BOND
     1     1     2 1   
     2     1    15 1   
     3     1    16 1   
     4     1    17 1   
     5     2     3 2   
     6     2     4 1   
     7     4     5 1   
     8     4    18 1   
     9     5     6 1   
    10     5     7 1   
    11     5    19 1   
    12     6    20 1   
    13     6    21 1   
    14     6    22 1   
    15     7     8 1   
    16     7    23 1   
    17     7    24 1   
    18     8     9 1   
    19     8    25 1   
    20     8    26 1   
    21     9    10 1   
    22     9    27 1   
    23    10    11 1   
    24    10    28 1   
    25    10    29 1   
    26    11    12 1   
    27    11    30 1   
    28    11    31 1   
    29    12    13 1   
    30    12    32 1   
    31    12    33 1   
    32    13    14 1   
    33    13    34 1   
    34    13    35 1   
    35    14    36 1   
    36    14    37 1   
@<TRIPOS>SUBSTRUCTURE
     1 SP7         1 TEMP              0 ****  ****    0 ROOT
