@<TRIPOS>MOLECULE
SP7
   37    36     1     0     0
SMALL
bcc


@<TRIPOS>ATOM
      1 CAC         -4.2730     2.3430    -0.7290 c3         1 SP7      -0.180100
      2 CAD         -3.9980     1.1370     0.1360 c          1 SP7       0.667100
      3 OAA         -4.4550     1.0440     1.2690 o          1 SP7      -0.612100
      4 NAE         -3.2080     0.2030    -0.4160 ns         1 SP7      -0.575900
      5 CAF         -2.8280    -1.0400     0.2340 c3         1 SP7       0.112700
      6 CAB         -3.8360    -2.1460    -0.0600 c3         1 SP7      -0.108100
      7 CAG         -1.4170    -1.4310    -0.1940 c3         1 SP7      -0.094400
      8 CAH         -0.3560    -0.4320     0.2420 c3         1 SP7       0.160800
      9 NAI          0.9630    -0.8480    -0.1920 n7         1 SP7      -0.809200
     10 CAJ          2.0120     0.0610     0.2280 c3         1 SP7       0.160800
     11 CAK          3.3780    -0.4080    -0.2470 c3         1 SP7      -0.079400
     12 CAL          4.5050     0.5100     0.2070 c3         1 SP7      -0.078400
     13 CAM          5.8690     0.0500    -0.2840 c3         1 SP7       0.149800
     14 NAN          6.9210     0.9460     0.1760 n8         1 SP7      -0.884800
     15 HAC         -3.8040     3.2200    -0.2820 hc         1 SP7       0.059033
     16 HACA        -3.9060     2.2440    -1.7490 hc         1 SP7       0.059033
     17 HACB        -5.3460     2.5300    -0.7630 hc         1 SP7       0.059033
     18 HNAE        -2.9150     0.3310    -1.3720 hn         1 SP7       0.310500
     19 HAF         -2.8240    -0.8510     1.3100 h1         1 SP7       0.076700
     20 HAB         -3.5550    -3.0650     0.4550 hc         1 SP7       0.042367
     21 HABA        -4.8340    -1.8630     0.2750 hc         1 SP7       0.042367
     22 HABB        -3.8820    -2.3590    -1.1290 hc         1 SP7       0.042367
     23 HAG         -1.1920    -2.4100     0.2400 hc         1 SP7       0.050700
     24 HAGA        -1.3790    -1.5600    -1.2810 hc         1 SP7       0.050700
     25 HAH         -0.5660     0.5480    -0.1990 h1         1 SP7       0.033200
     26 HAHA        -0.4220    -0.2940     1.3340 h1         1 SP7       0.033200
     27 HNAI         1.1590    -1.7650     0.1960 hn         1 SP7       0.347800
     28 HAJ          1.8000     1.0480    -0.1970 h1         1 SP7       0.029700
     29 HAJA         2.0340     0.2000     1.3220 h1         1 SP7       0.029700
     30 HAK          3.5620    -1.4220     0.1260 hc         1 SP7       0.043700
     31 HAKA         3.3720    -0.4780    -1.3390 hc         1 SP7       0.043700
     32 HAL          4.3230     1.5300    -0.1460 hc         1 SP7       0.046200
     33 HALA         4.5130     0.5590     1.3020 hc         1 SP7       0.046200
     34 HAM          6.0200    -0.9970     0.0180 h1         1 SP7       0.026700
     35 HAMA         5.8740     0.0550    -1.3780 h1         1 SP7       0.026700
     36 HNAN         7.0220     0.8510     1.1800 hn         1 SP7       0.336300
     37 HNAA         7.8080     0.6520    -0.2130 hn         1 SP7       0.336300
@<TRIPOS>BOND
     1     1     2 1   
     2     1    15 1   
     3     1    16 1   
     4     1    17 1   
     5     2     3 2   
     6     2     4 1   
     7     4     5 1   
     8     4    18 1   
     9     5     6 1   
    10     5     7 1   
    11     5    19 1   
    12     6    20 1   
    13     6    21 1   
    14     6    22 1   
    15     7     8 1   
    16     7    23 1   
    17     7    24 1   
    18     8     9 1   
    19     8    25 1   
    20     8    26 1   
    21     9    10 1   
    22     9    27 1   
    23    10    11 1   
    24    10    28 1   
    25    10    29 1   
    26    11    12 1   
    27    11    30 1   
    28    11    31 1   
    29    12    13 1   
    30    12    32 1   
    31    12    33 1   
    32    13    14 1   
    33    13    34 1   
    34    13    35 1   
    35    14    36 1   
    36    14    37 1   
@<TRIPOS>SUBSTRUCTURE
     1 SP7         1 TEMP              0 ****  ****    0 ROOT
