@<TRIPOS>MOLECULE
SP8
   44    44     1     0     0
SMALL
No Charge or Current Charge


@<TRIPOS>ATOM
      1 CAE         -4.6340    -1.0320    -0.9860 ca         1 SP8      -0.071000
      2 CAD         -5.2750    -2.2410    -0.6650 ca         1 SP8      -0.122000
      3 CAC         -4.8660    -2.9810     0.4540 ca         1 SP8      -0.088000
      4 CAR         -3.8120    -2.5100     1.2520 ca         1 SP8      -0.122000
      5 CAS         -3.1670    -1.3020     0.9360 ca         1 SP8      -0.071000
      6 CAF         -3.5710    -0.5430    -0.1910 ca         1 SP8      -0.148600
      7 CAG         -2.9020     0.7650    -0.5680 c          1 SP8       0.614700
      8 OAA         -3.2420     1.4120    -1.5500 o          1 SP8      -0.612100
      9 NAH         -1.8800     1.1950     0.2530 ns         1 SP8      -0.501900
     10 CAI         -1.1150     2.4310     0.0690 c3         1 SP8       0.112700
     11 CAB         -1.8220     3.6030     0.7780 c3         1 SP8      -0.109100
     12 CAJ          0.3450     2.2540     0.5450 c3         1 SP8      -0.094400
     13 CAK          1.1150     1.1570    -0.2190 c3         1 SP8       0.159800
     14 NAL          2.5030     1.0780     0.2710 n7         1 SP8      -0.865400
     15 CAM          3.3370     0.0510    -0.3770 c3         1 SP8       0.160800
     16 CAN          4.7550     0.0570     0.2280 c3         1 SP8      -0.078400
     17 CAO          5.6840    -1.0040    -0.4040 c3         1 SP8      -0.078400
     18 CAP          7.1020    -0.9970     0.2030 c3         1 SP8       0.149800
     19 NAQ          7.9630    -2.0170    -0.4230 n8         1 SP8      -0.996200
     20 HAE         -4.9690    -0.4750    -1.8580 ha         1 SP8       0.122000
     21 HAD         -6.0910    -2.6030    -1.2870 ha         1 SP8       0.116500
     22 HAC         -5.3630    -3.9170     0.7010 ha         1 SP8       0.115000
     23 HAR         -3.4930    -3.0840     2.1200 ha         1 SP8       0.116500
     24 HAS         -2.3550    -0.9730     1.5800 ha         1 SP8       0.122000
     25 HNAH        -1.6610     0.6130     1.0500 hn         1 SP8       0.311500
     26 HAI         -1.0850     2.6620    -1.0060 h1         1 SP8       0.081700
     27 HAB         -1.2770     4.5400     0.6120 hc         1 SP8       0.042367
     28 HABA        -2.8400     3.7310     0.3920 hc         1 SP8       0.042367
     29 HABB        -1.8830     3.4260     1.8590 hc         1 SP8       0.042367
     30 HAJ          0.8730     3.2080     0.4210 hc         1 SP8       0.049700
     31 HAJA         0.3520     2.0230     1.6170 hc         1 SP8       0.049700
     32 HAK          0.6090     0.1910    -0.0790 h1         1 SP8       0.035700
     33 HAKA         1.1000     1.3900    -1.2930 h1         1 SP8       0.035700
     34 HNAL         2.9480     1.9910     0.1190 hn         1 SP8       0.403000
     35 HAM          2.8920    -0.9450    -0.2380 h1         1 SP8       0.030200
     36 HAMA         3.4060     0.2390    -1.4570 h1         1 SP8       0.030200
     37 HAN          5.2010     1.0500     0.0950 hc         1 SP8       0.043700
     38 HANA         4.6860    -0.1240     1.3080 hc         1 SP8       0.043700
     39 HAO          5.2370    -1.9970    -0.2700 hc         1 SP8       0.046200
     40 HAOA         5.7520    -0.8240    -1.4840 hc         1 SP8       0.046200
     41 HAP          7.5620    -0.0100     0.0560 h1         1 SP8       0.026700
     42 HAPA         7.0450    -1.1970     1.2820 h1         1 SP8       0.026700
     43 HNAQ         8.8750    -2.0190     0.0510 hn         1 SP8       0.391500
     44 HNAA         7.5830    -2.9480    -0.2150 hn         1 SP8       0.391500
@<TRIPOS>BOND
     1     1     2 ar  
     2     1     6 ar  
     3     1    20 1   
     4     2     3 ar  
     5     2    21 1   
     6     3     4 ar  
     7     3    22 1   
     8     4     5 ar  
     9     4    23 1   
    10     5     6 ar  
    11     5    24 1   
    12     6     7 1   
    13     7     8 2   
    14     7     9 1   
    15     9    10 1   
    16     9    25 1   
    17    10    11 1   
    18    10    12 1   
    19    10    26 1   
    20    11    27 1   
    21    11    28 1   
    22    11    29 1   
    23    12    13 1   
    24    12    30 1   
    25    12    31 1   
    26    13    14 1   
    27    13    32 1   
    28    13    33 1   
    29    14    15 1   
    30    14    34 1   
    31    15    16 1   
    32    15    35 1   
    33    15    36 1   
    34    16    17 1   
    35    16    37 1   
    36    16    38 1   
    37    17    18 1   
    38    17    39 1   
    39    17    40 1   
    40    18    19 1   
    41    18    41 1   
    42    18    42 1   
    43    19    43 1   
    44    19    44 1   
@<TRIPOS>SUBSTRUCTURE
     1 SP8         1 TEMP              0 ****  ****    0 ROOT
