@<TRIPOS>MOLECULE
SP8
   44    44     1     0     0
SMALL
abcg2


@<TRIPOS>ATOM
      1 CAE         -4.3300    -1.1930    -1.0140 ca         1 SP8      -0.071000
      2 CAD         -5.0120    -2.3510    -0.6750 ca         1 SP8      -0.122000
      3 CAC         -4.8070    -2.9440     0.5640 ca         1 SP8      -0.088000
      4 CAR         -3.9140    -2.3700     1.4590 ca         1 SP8      -0.122000
      5 CAS         -3.2300    -1.2130     1.1170 ca         1 SP8      -0.071000
      6 CAF         -3.4290    -0.6090    -0.1240 ca         1 SP8      -0.148600
      7 CAG         -2.7360     0.6470    -0.5700 c          1 SP8       0.614700
      8 OAA         -3.0000     1.1490    -1.6570 o          1 SP8      -0.612100
      9 NAH         -1.8250     1.1670     0.2640 ns         1 SP8      -0.501900
     10 CAI         -1.0980     2.4030     0.0190 c3         1 SP8       0.112700
     11 CAB         -1.8130     3.5890     0.6550 c3         1 SP8      -0.109100
     12 CAJ          0.3280     2.2560     0.5420 c3         1 SP8      -0.094400
     13 CAK          1.1630     1.2590    -0.2450 c3         1 SP8       0.159800
     14 NAL          2.4620     1.0680     0.3690 n7         1 SP8      -0.865400
     15 CAM          3.3290     0.1900    -0.3940 c3         1 SP8       0.160800
     16 CAN          4.6630    -0.0160     0.3060 c3         1 SP8      -0.078400
     17 CAO          5.6130    -0.9010    -0.4890 c3         1 SP8      -0.078400
     18 CAP          6.9340    -1.1330     0.2280 c3         1 SP8       0.149800
     19 NAQ          7.8190    -1.9730    -0.5670 n8         1 SP8      -0.996200
     20 HAE         -4.4980    -0.7380    -1.9800 ha         1 SP8       0.122000
     21 HAD         -5.7070    -2.7900    -1.3780 ha         1 SP8       0.116500
     22 HAC         -5.3380    -3.8480     0.8310 ha         1 SP8       0.115000
     23 HAR         -3.7480    -2.8210     2.4280 ha         1 SP8       0.116500
     24 HAS         -2.5470    -0.8030     1.8500 ha         1 SP8       0.122000
     25 HNAH        -1.6800     0.7480     1.1670 hn         1 SP8       0.311500
     26 HAI         -1.0660     2.5520    -1.0620 h1         1 SP8       0.081700
     27 HAB         -1.2980     4.5200     0.4140 hc         1 SP8       0.042367
     28 HABA        -2.8380     3.6690     0.2920 hc         1 SP8       0.042367
     29 HABB        -1.8440     3.4920     1.7420 hc         1 SP8       0.042367
     30 HAJ          0.8090     3.2380     0.5090 hc         1 SP8       0.049700
     31 HAJA         0.3010     1.9620     1.5970 hc         1 SP8       0.049700
     32 HAK          0.6530     0.2910    -0.2750 h1         1 SP8       0.035700
     33 HAKA         1.2330     1.5980    -1.2920 h1         1 SP8       0.035700
     34 HNAL         2.9180     1.9700     0.4570 hn         1 SP8       0.403000
     35 HAM          2.8250    -0.7760    -0.5040 h1         1 SP8       0.030200
     36 HAMA         3.5040     0.5580    -1.4180 h1         1 SP8       0.030200
     37 HAN          5.1350     0.9570     0.4800 hc         1 SP8       0.043700
     38 HANA         4.4830    -0.4520     1.2930 hc         1 SP8       0.043700
     39 HAO          5.1340    -1.8670    -0.6840 hc         1 SP8       0.046200
     40 HAOA         5.8120    -0.4510    -1.4660 hc         1 SP8       0.046200
     41 HAP          7.4280    -0.1700     0.3880 h1         1 SP8       0.026700
     42 HAPA         6.7270    -1.5400     1.2290 h1         1 SP8       0.026700
     43 HNAQ         8.6930    -2.1040    -0.0740 hn         1 SP8       0.391500
     44 HNAA         7.4140    -2.8970    -0.6480 hn         1 SP8       0.391500
@<TRIPOS>BOND
     1     1     2 ar  
     2     1     6 ar  
     3     1    20 1   
     4     2     3 ar  
     5     2    21 1   
     6     3     4 ar  
     7     3    22 1   
     8     4     5 ar  
     9     4    23 1   
    10     5     6 ar  
    11     5    24 1   
    12     6     7 1   
    13     7     8 2   
    14     7     9 1   
    15     9    10 1   
    16     9    25 1   
    17    10    11 1   
    18    10    12 1   
    19    10    26 1   
    20    11    27 1   
    21    11    28 1   
    22    11    29 1   
    23    12    13 1   
    24    12    30 1   
    25    12    31 1   
    26    13    14 1   
    27    13    32 1   
    28    13    33 1   
    29    14    15 1   
    30    14    34 1   
    31    15    16 1   
    32    15    35 1   
    33    15    36 1   
    34    16    17 1   
    35    16    37 1   
    36    16    38 1   
    37    17    18 1   
    38    17    39 1   
    39    17    40 1   
    40    18    19 1   
    41    18    41 1   
    42    18    42 1   
    43    19    43 1   
    44    19    44 1   
@<TRIPOS>SUBSTRUCTURE
     1 SP8         1 TEMP              0 ****  ****    0 ROOT
