@<TRIPOS>MOLECULE
SP9
   44    44     1     0     0
SMALL
No Charge or Current Charge


@<TRIPOS>ATOM
      1 CAE         -3.6480    -1.5980     1.1970 ca         1 SP9      -0.074500
      2 CAD         -4.4450    -2.7080     0.8680 ca         1 SP9      -0.119500
      3 CAC         -4.8350    -2.9270    -0.4610 ca         1 SP9      -0.090000
      4 CAR         -4.4250    -2.0340    -1.4630 ca         1 SP9      -0.119500
      5 CAS         -3.6280    -0.9220    -1.1400 ca         1 SP9      -0.074500
      6 CAF         -3.2260    -0.6870     0.2000 ca         1 SP9      -0.150600
      7 CAG         -2.3660     0.4990     0.5910 c          1 SP9       0.613700
      8 OAA         -2.0160     0.6950     1.7470 o          1 SP9      -0.605100
      9 NAH         -1.9900     1.3510    -0.4270 ns         1 SP9      -0.505900
     10 CAI         -1.1570     2.5460    -0.2660 c3         1 SP9       0.112700
     11 CAB         -1.7920     3.7250    -1.0270 c3         1 SP9      -0.108100
     12 CAJ          0.3010     2.2830    -0.7120 c3         1 SP9      -0.093400
     13 CAK          1.0100     1.1750     0.0950 c3         1 SP9       0.159800
     14 NAL          2.4100     1.0440    -0.3450 n7         1 SP9      -0.864400
     15 CAM          3.1950     0.0210     0.3670 c3         1 SP9       0.160800
     16 CAN          4.6390    -0.0140    -0.1720 c3         1 SP9      -0.080400
     17 CAO          5.5210    -1.0660     0.5370 c3         1 SP9      -0.078400
     18 CAP          6.9650    -1.1000    -0.0040 c3         1 SP9       0.149800
     19 NAQ          7.7800    -2.1140     0.6900 n8         1 SP9      -0.996200
     20 HAE         -3.3580    -1.4480     2.2350 ha         1 SP9       0.122000
     21 HAD         -4.7610    -3.3990     1.6470 ha         1 SP9       0.116500
     22 HAC         -5.4520    -3.7870    -0.7150 ha         1 SP9       0.115000
     23 HAR         -4.7270    -2.2030    -2.4950 ha         1 SP9       0.116500
     24 HAS         -3.3320    -0.2540    -1.9450 ha         1 SP9       0.122000
     25 HNAH        -2.3210     1.1240    -1.3540 hn         1 SP9       0.311500
     26 HAI         -1.1370     2.8230     0.7970 h1         1 SP9       0.080700
     27 HAB         -2.8110     3.9110    -0.6670 hc         1 SP9       0.042700
     28 HABA        -1.2080     4.6410    -0.8770 hc         1 SP9       0.042700
     29 HABB        -1.8380     3.5190    -2.1030 hc         1 SP9       0.042700
     30 HAJ          0.3120     2.0190    -1.7770 hc         1 SP9       0.050200
     31 HAJA         0.8730     3.2130    -0.6090 hc         1 SP9       0.050200
     32 HAK          0.9680     1.4290     1.1640 h1         1 SP9       0.034700
     33 HAKA         0.4770     0.2240    -0.0450 h1         1 SP9       0.034700
     34 HNAL         2.4090     0.8060    -1.3440 hn         1 SP9       0.401000
     35 HAM          3.2200     0.2400     1.4440 h1         1 SP9       0.030700
     36 HAMA         2.7390    -0.9710     0.2370 h1         1 SP9       0.030700
     37 HAN          4.6190    -0.2300    -1.2480 hc         1 SP9       0.043200
     38 HANA         5.0930     0.9770    -0.0500 hc         1 SP9       0.043200
     39 HAO          5.5410    -0.8510     1.6130 hc         1 SP9       0.046700
     40 HAOA         5.0660    -2.0570     0.4140 hc         1 SP9       0.046700
     41 HAP          6.9530    -1.3330    -1.0780 h1         1 SP9       0.026200
     42 HAPA         7.4360    -0.1160     0.1330 h1         1 SP9       0.026200
     43 HNAQ         8.7460    -2.0610     0.3440 hn         1 SP9       0.391500
     44 HNAA         7.8650    -1.8530     1.6800 hn         1 SP9       0.391500
@<TRIPOS>BOND
     1     1     2 ar  
     2     1     6 ar  
     3     1    20 1   
     4     2     3 ar  
     5     2    21 1   
     6     3     4 ar  
     7     3    22 1   
     8     4     5 ar  
     9     4    23 1   
    10     5     6 ar  
    11     5    24 1   
    12     6     7 1   
    13     7     8 2   
    14     7     9 1   
    15     9    10 1   
    16     9    25 1   
    17    10    11 1   
    18    10    12 1   
    19    10    26 1   
    20    11    27 1   
    21    11    28 1   
    22    11    29 1   
    23    12    13 1   
    24    12    30 1   
    25    12    31 1   
    26    13    14 1   
    27    13    32 1   
    28    13    33 1   
    29    14    15 1   
    30    14    34 1   
    31    15    16 1   
    32    15    35 1   
    33    15    36 1   
    34    16    17 1   
    35    16    37 1   
    36    16    38 1   
    37    17    18 1   
    38    17    39 1   
    39    17    40 1   
    40    18    19 1   
    41    18    41 1   
    42    18    42 1   
    43    19    43 1   
    44    19    44 1   
@<TRIPOS>SUBSTRUCTURE
     1 SP9         1 TEMP              0 ****  ****    0 ROOT
