@<TRIPOS>MOLECULE
SP9
   44    44     1     0     0
SMALL
bcc


@<TRIPOS>ATOM
      1 CAE         -4.0040    -1.4230     1.0710 ca         1 SP9      -0.092500
      2 CAD         -4.6710    -2.5840     0.7140 ca         1 SP9      -0.137500
      3 CAC         -4.8520    -2.9000    -0.6270 ca         1 SP9      -0.108000
      4 CAR         -4.3610    -2.0500    -1.6080 ca         1 SP9      -0.137500
      5 CAS         -3.6800    -0.8950    -1.2520 ca         1 SP9      -0.092500
      6 CAF         -3.4880    -0.5760     0.0910 ca         1 SP9      -0.150600
      7 CAG         -2.7820     0.6690     0.5310 c          1 SP9       0.680700
      8 OAA         -3.0670     1.2120     1.5910 o          1 SP9      -0.605100
      9 NAH         -1.8240     1.1190    -0.2920 ns         1 SP9      -0.572900
     10 CAI         -1.0830     2.3540    -0.0880 c3         1 SP9       0.112700
     11 CAB         -1.7840     3.5260    -0.7640 c3         1 SP9      -0.108100
     12 CAJ          0.3430     2.1770    -0.5990 c3         1 SP9      -0.093400
     13 CAK          1.1750     1.2070     0.2270 c3         1 SP9       0.159800
     14 NAL          2.4900     1.0290    -0.3580 n7         1 SP9      -0.809200
     15 CAM          3.3500     0.1630     0.4250 c3         1 SP9       0.160800
     16 CAN          4.6880    -0.0580    -0.2630 c3         1 SP9      -0.080400
     17 CAO          5.6320    -0.9330     0.5500 c3         1 SP9      -0.078400
     18 CAP          6.9580    -1.1700    -0.1560 c3         1 SP9       0.149800
     19 NAQ          7.8360    -2.0100     0.6460 n8         1 SP9      -0.885800
     20 HAE         -3.8730    -1.1760     2.1160 ha         1 SP9       0.140000
     21 HAD         -5.0530    -3.2430     1.4830 ha         1 SP9       0.134500
     22 HAC         -5.3780    -3.8040    -0.9060 ha         1 SP9       0.133000
     23 HAR         -4.5110    -2.2830    -2.6540 ha         1 SP9       0.134500
     24 HAS         -3.3270    -0.2360    -2.0350 ha         1 SP9       0.140000
     25 HNAH        -1.6170     0.6010    -1.1320 hn         1 SP9       0.311500
     26 HAI         -1.0510     2.5390     0.9880 h1         1 SP9       0.080700
     27 HAB         -2.8090     3.6280    -0.4060 hc         1 SP9       0.042700
     28 HABA        -1.2600     4.4590    -0.5520 hc         1 SP9       0.042700
     29 HABB        -1.8130     3.3940    -1.8470 hc         1 SP9       0.042700
     30 HAJ          0.3090     1.8460    -1.6450 hc         1 SP9       0.050200
     31 HAJA         0.8370     3.1510    -0.6070 hc         1 SP9       0.050200
     32 HAK          1.3000     1.6150     1.2350 h1         1 SP9       0.034700
     33 HAKA         0.6350     0.2540     0.3490 h1         1 SP9       0.034700
     34 HNAL         2.3790     0.6260    -1.2820 hn         1 SP9       0.345800
     35 HAM          3.5160     0.6350     1.4000 h1         1 SP9       0.030700
     36 HAMA         2.8850    -0.8150     0.6370 h1         1 SP9       0.030700
     37 HAN          4.5170    -0.5200    -1.2420 hc         1 SP9       0.043200
     38 HANA         5.1550     0.9130    -0.4570 hc         1 SP9       0.043200
     39 HAO          5.8200    -0.4610     1.5210 hc         1 SP9       0.046700
     40 HAOA         5.1610    -1.8980     0.7610 hc         1 SP9       0.046700
     41 HAP          6.7690    -1.6800    -1.1050 h1         1 SP9       0.026200
     42 HAPA         7.4000    -0.1960    -0.4160 h1         1 SP9       0.026200
     43 HNAQ         8.7000    -2.1700     0.1450 hn         1 SP9       0.336300
     44 HNAA         8.1000    -1.5070     1.4850 hn         1 SP9       0.336300
@<TRIPOS>BOND
     1     1     2 ar  
     2     1     6 ar  
     3     1    20 1   
     4     2     3 ar  
     5     2    21 1   
     6     3     4 ar  
     7     3    22 1   
     8     4     5 ar  
     9     4    23 1   
    10     5     6 ar  
    11     5    24 1   
    12     6     7 1   
    13     7     8 2   
    14     7     9 1   
    15     9    10 1   
    16     9    25 1   
    17    10    11 1   
    18    10    12 1   
    19    10    26 1   
    20    11    27 1   
    21    11    28 1   
    22    11    29 1   
    23    12    13 1   
    24    12    30 1   
    25    12    31 1   
    26    13    14 1   
    27    13    32 1   
    28    13    33 1   
    29    14    15 1   
    30    14    34 1   
    31    15    16 1   
    32    15    35 1   
    33    15    36 1   
    34    16    17 1   
    35    16    37 1   
    36    16    38 1   
    37    17    18 1   
    38    17    39 1   
    39    17    40 1   
    40    18    19 1   
    41    18    41 1   
    42    18    42 1   
    43    19    43 1   
    44    19    44 1   
@<TRIPOS>SUBSTRUCTURE
     1 SP9         1 TEMP              0 ****  ****    0 ROOT
