@<TRIPOS>MOLECULE
SPA
   14    14     1     0     0
SMALL
No Charge or Current Charge


@<TRIPOS>ATOM
      1 S1          -0.7820     0.7320    -1.0040 ss         1 SPA       0.361000
      2 C2           0.3580    -0.4040    -0.2650 cc         1 SPA      -0.158300
      3 C3           1.3880    -0.6880    -1.1280 cd         1 SPA      -0.204000
      4 C4           1.2960    -0.0110    -2.3730 cd         1 SPA      -0.151000
      5 C5           0.1930     0.7950    -2.4750 cc         1 SPA      -0.367000
      6 C6           0.1490    -0.9600     1.1280 c3         1 SPA      -0.187100
      7 C7          -0.3980     0.0760     2.1300 c          1 SPA       0.741000
      8 O1          -1.6110     0.2140     2.2090 o          1 SPA      -0.702000
      9 O2           0.4040     0.7990     2.7040 o          1 SPA      -0.702000
     10 H3           2.1980    -1.3670    -0.8820 ha         1 SPA       0.103000
     11 H4           2.0290    -0.1220    -3.1670 ha         1 SPA       0.086000
     12 H5          -0.1250     1.4190    -3.2990 h4         1 SPA       0.108000
     13 H61          1.1340    -1.3000     1.4700 hc         1 SPA       0.035700
     14 H62         -0.5720    -1.7790     1.0200 hc         1 SPA       0.035700
@<TRIPOS>BOND
     1     1     2 1   
     2     1     5 1   
     3     2     3 2   
     4     2     6 1   
     5     3     4 1   
     6     3    10 1   
     7     4     5 2   
     8     4    11 1   
     9     5    12 1   
    10     6     7 1   
    11     6    13 1   
    12     6    14 1   
    13     7     8 1   
    14     7     9 1   
@<TRIPOS>SUBSTRUCTURE
     1 SPA         1 TEMP              0 ****  ****    0 ROOT
