@<TRIPOS>MOLECULE
SPA
   14    14     1     0     0
SMALL
abcg2


@<TRIPOS>ATOM
      1 S1          -0.6700     0.7870    -0.8410 ss         1 SPA       0.361000
      2 C2           0.4870    -0.3370    -0.2230 cc         1 SPA      -0.158300
      3 C3           1.3830    -0.7260    -1.1750 cd         1 SPA      -0.204000
      4 C4           1.1360    -0.1000    -2.4410 cd         1 SPA      -0.151000
      5 C5           0.0600     0.7120    -2.4150 cc         1 SPA      -0.367000
      6 C6           0.3870    -0.8130     1.1800 c3         1 SPA      -0.187100
      7 C7          -0.4560     0.1470     2.0730 c          1 SPA       0.741000
      8 O1          -1.2680     0.8150     1.3850 o          1 SPA      -0.702000
      9 O2          -0.2780     0.0530     3.2650 o          1 SPA      -0.702000
     10 H3           2.1860    -1.4260    -0.9910 ha         1 SPA       0.103000
     11 H4           1.7480    -0.2530    -3.3180 ha         1 SPA       0.086000
     12 H5          -0.3210     1.3220    -3.2200 h4         1 SPA       0.108000
     13 H61          1.3810    -0.9920     1.5990 hc         1 SPA       0.035700
     14 H62         -0.1140    -1.7870     1.1910 hc         1 SPA       0.035700
@<TRIPOS>BOND
     1     1     2 1   
     2     1     5 1   
     3     2     3 2   
     4     2     6 1   
     5     3     4 1   
     6     3    10 1   
     7     4     5 2   
     8     4    11 1   
     9     5    12 1   
    10     6     7 1   
    11     6    13 1   
    12     6    14 1   
    13     7     8 1   
    14     7     9 1   
@<TRIPOS>SUBSTRUCTURE
     1 SPA         1 TEMP              0 ****  ****    0 ROOT
