@<TRIPOS>MOLECULE
SPB
   41    42     1     0     0
SMALL
No Charge or Current Charge


@<TRIPOS>ATOM
      1 C1           1.6630     0.5730    -6.5190 ca         1 SPB      -0.105000
      2 C2           1.7870     0.4110    -7.9090 ca         1 SPB      -0.112000
      3 C3           0.8140    -0.3060    -8.6230 ca         1 SPB      -0.117000
      4 C4          -0.2830    -0.8600    -7.9440 ca         1 SPB      -0.112000
      5 C5          -0.4080    -0.6980    -6.5520 ca         1 SPB      -0.105000
      6 C6           0.5660     0.0220    -5.8250 ca         1 SPB      -0.035800
      7 C7           0.4680     0.2150    -4.3470 ce         1 SPB      -0.184200
      8 C8          -0.4880    -0.2260    -3.4780 cf         1 SPB      -0.118200
      9 C9          -0.5880    -0.0370    -2.0150 ca         1 SPB      -0.110800
     10 C10         -1.6810    -0.5920    -1.3220 ca         1 SPB      -0.065000
     11 C11         -1.8040    -0.4300     0.0690 ca         1 SPB      -0.165500
     12 C12         -0.8440     0.2920     0.7980 ca         1 SPB       0.013000
     13 C13          0.2550     0.8450     0.1080 ca         1 SPB      -0.165500
     14 C14          0.3800     0.6830    -1.2840 ca         1 SPB      -0.065000
     15 N15         -1.0350     0.4110     2.2020 ns         1 SPB      -0.159000
     16 C16         -0.3460     1.1090     3.1850 c          1 SPB       0.602100
     17 C17         -0.9210     0.9340     4.5990 c3         1 SPB      -0.157400
     18 C18         -0.0080     0.0460     5.4800 c3         1 SPB      -0.045400
     19 C19         -0.5620    -0.1600     6.9110 c3         1 SPB      -0.209400
     20 C20          0.3950    -1.0470     7.7270 c          1 SPB       0.718000
     21 O21          0.2410    -2.2570     7.6780 o          1 SPB      -0.737500
     22 O22          0.6170     1.8360     2.9740 o          1 SPB      -0.567100
     23 O23          1.3000    -0.5040     8.3420 o          1 SPB      -0.737500
     24 HC1          2.4260     1.1310    -5.9790 ha         1 SPB       0.111500
     25 HC2          2.6380     0.8410    -8.4330 ha         1 SPB       0.107500
     26 HC3          0.9090    -0.4320    -9.6990 ha         1 SPB       0.107000
     27 HC4         -1.0380    -1.4150    -8.4950 ha         1 SPB       0.107500
     28 HC5         -1.2660    -1.1360    -6.0530 ha         1 SPB       0.111500
     29 HC7          1.2940     0.7960    -3.9390 ha         1 SPB       0.174000
     30 HC8         -1.3110    -0.8070    -3.8930 ha         1 SPB       0.164000
     31 H10C        -2.4410    -1.1540    -1.8600 ha         1 SPB       0.106500
     32 H11C        -2.6580    -0.8690     0.5800 ha         1 SPB       0.131000
     33 H13C         1.0280     1.4010     0.6280 ha         1 SPB       0.131000
     34 H14C         1.2390     1.1240    -1.7810 ha         1 SPB       0.106500
     35 H15N        -1.8220    -0.1210     2.5500 hn         1 SPB       0.147000
     36 H171        -1.9120     0.4660     4.5460 hc         1 SPB       0.046700
     37 H172        -1.0030     1.9210     5.0690 hc         1 SPB       0.046700
     38 H181         0.9890     0.5010     5.5410 hc         1 SPB       0.058200
     39 H182         0.1190    -0.9320     4.9970 hc         1 SPB       0.058200
     40 H191        -1.5340    -0.6540     6.7880 hc         1 SPB       0.013200
     41 H192        -0.6300     0.8420     7.3540 hc         1 SPB       0.013200
@<TRIPOS>BOND
     1     1     2 ar  
     2     1     6 ar  
     3     1    24 1   
     4     2     3 ar  
     5     2    25 1   
     6     3     4 ar  
     7     3    26 1   
     8     4     5 ar  
     9     4    27 1   
    10     5     6 ar  
    11     5    28 1   
    12     6     7 1   
    13     7     8 2   
    14     7    29 1   
    15     8     9 1   
    16     8    30 1   
    17     9    10 ar  
    18     9    14 ar  
    19    10    11 ar  
    20    10    31 1   
    21    11    12 ar  
    22    11    32 1   
    23    12    13 ar  
    24    12    15 1   
    25    13    14 ar  
    26    13    33 1   
    27    14    34 1   
    28    15    16 1   
    29    15    35 1   
    30    16    17 1   
    31    16    22 2   
    32    17    18 1   
    33    17    36 1   
    34    17    37 1   
    35    18    19 1   
    36    18    38 1   
    37    18    39 1   
    38    19    20 1   
    39    19    40 1   
    40    19    41 1   
    41    20    21 1   
    42    20    23 1   
@<TRIPOS>SUBSTRUCTURE
     1 SPB         1 TEMP              0 ****  ****    0 ROOT
