@<TRIPOS>MOLECULE
SPB
   41    42     1     0     0
SMALL
bcc


@<TRIPOS>ATOM
      1 C1           1.7400     0.3850    -6.4350 ca         1 SPB      -0.123000
      2 C2           1.8590     0.3620    -7.8170 ca         1 SPB      -0.130000
      3 C3           0.7800    -0.0200    -8.6030 ca         1 SPB      -0.135000
      4 C4          -0.4160    -0.3800    -7.9900 ca         1 SPB      -0.130000
      5 C5          -0.5340    -0.3580    -6.6110 ca         1 SPB      -0.123000
      6 C6           0.5420     0.0320    -5.8050 ca         1 SPB      -0.035800
      7 C7           0.4790     0.0850    -4.3460 ce         1 SPB      -0.134200
      8 C8          -0.6120    -0.0930    -3.5880 cf         1 SPB      -0.068200
      9 C9          -0.6660    -0.0480    -2.1310 ca         1 SPB      -0.110800
     10 C10         -1.9090    -0.0810    -1.4920 ca         1 SPB      -0.083000
     11 C11         -2.0160    -0.0390    -0.1160 ca         1 SPB      -0.183500
     12 C12         -0.8760     0.0320     0.6890 ca         1 SPB       0.105600
     13 C13          0.3760     0.0600     0.0660 ca         1 SPB      -0.183500
     14 C14          0.4650     0.0200    -1.3130 ca         1 SPB      -0.083000
     15 N15         -1.0750     0.0690     2.0680 ns         1 SPB      -0.485100
     16 C16         -0.1630     0.0840     3.0800 c          1 SPB       0.669100
     17 C17         -0.7970     0.1250     4.4540 c3         1 SPB      -0.157400
     18 C18          0.2020     0.1040     5.6000 c3         1 SPB      -0.045400
     19 C19         -0.5010     0.1540     6.9470 c3         1 SPB      -0.209400
     20 C20          0.4180     0.1370     8.1810 c          1 SPB       0.928600
     21 O21          1.6460     0.0290     7.9920 o          1 SPB      -0.842800
     22 O22          1.0410     0.0670     2.9000 o          1 SPB      -0.567100
     23 O23         -0.1540     0.2310     9.2870 o          1 SPB      -0.842800
     24 HC1          2.5880     0.6850    -5.8320 ha         1 SPB       0.129500
     25 HC2          2.7960     0.6440    -8.2790 ha         1 SPB       0.125500
     26 HC3          0.8690    -0.0400    -9.6810 ha         1 SPB       0.125000
     27 HC4         -1.2620    -0.6850    -8.5930 ha         1 SPB       0.125500
     28 HC5         -1.4730    -0.6560    -6.1630 ha         1 SPB       0.129500
     29 HC7          1.4260     0.3090    -3.8640 ha         1 SPB       0.124000
     30 HC8         -1.5670    -0.2810    -4.0690 ha         1 SPB       0.114000
     31 H10C        -2.8130    -0.1400    -2.0870 ha         1 SPB       0.124500
     32 H11C        -2.9990    -0.0640     0.3420 ha         1 SPB       0.149000
     33 H13C         1.2810     0.1070     0.6490 ha         1 SPB       0.149000
     34 H14C         1.4550     0.0330    -1.7520 ha         1 SPB       0.124500
     35 H15N        -2.0430     0.0770     2.3550 hn         1 SPB       0.313500
     36 H171        -1.4890    -0.7200     4.5400 hc         1 SPB       0.046700
     37 H172        -1.4250     1.0210     4.5140 hc         1 SPB       0.046700
     38 H181         0.8870     0.9500     5.5080 hc         1 SPB       0.058200
     39 H182         0.8170    -0.7950     5.5370 hc         1 SPB       0.058200
     40 H191        -1.1990    -0.6880     7.0320 hc         1 SPB       0.013200
     41 H192        -1.1330     1.0480     7.0030 hc         1 SPB       0.013200
@<TRIPOS>BOND
     1     1     2 ar  
     2     1     6 ar  
     3     1    24 1   
     4     2     3 ar  
     5     2    25 1   
     6     3     4 ar  
     7     3    26 1   
     8     4     5 ar  
     9     4    27 1   
    10     5     6 ar  
    11     5    28 1   
    12     6     7 1   
    13     7     8 2   
    14     7    29 1   
    15     8     9 1   
    16     8    30 1   
    17     9    10 ar  
    18     9    14 ar  
    19    10    11 ar  
    20    10    31 1   
    21    11    12 ar  
    22    11    32 1   
    23    12    13 ar  
    24    12    15 1   
    25    13    14 ar  
    26    13    33 1   
    27    14    34 1   
    28    15    16 1   
    29    15    35 1   
    30    16    17 1   
    31    16    22 2   
    32    17    18 1   
    33    17    36 1   
    34    17    37 1   
    35    18    19 1   
    36    18    38 1   
    37    18    39 1   
    38    19    20 1   
    39    19    40 1   
    40    19    41 1   
    41    20    21 1   
    42    20    23 1   
@<TRIPOS>SUBSTRUCTURE
     1 SPB         1 TEMP              0 ****  ****    0 ROOT
