@<TRIPOS>MOLECULE
SPC
   42    43     1     0     0
SMALL
No Charge or Current Charge


@<TRIPOS>ATOM
      1 C1          -7.2770    19.7750    29.4000 ca         1 SPC      -0.361500
      2 C2          -8.0130    18.5920    29.1940 ca         1 SPC       0.026000
      3 C3          -7.3840    17.3430    29.3290 ca         1 SPC      -0.198000
      4 C4          -6.0170    17.2710    29.6710 ca         1 SPC       0.202100
      5 C5          -5.2910    18.4530    29.8740 ca         1 SPC      -0.198000
      6 C6          -5.9120    19.7050    29.7410 ca         1 SPC       0.026000
      7 S11         -8.0730    21.3780    29.2140 sy         1 SPC       1.215600
      8 O12         -7.3720    22.3210    30.0910 o          1 SPC      -0.546000
      9 O13         -9.5310    21.2230    29.2450 o          1 SPC      -0.546000
     10 O35         -5.3480    16.0720    29.8160 os         1 SPC      -0.342100
     11 C8          -6.0000    14.8020    29.6300 c3         1 SPC       0.146900
     12 N14         -7.6660    21.8080    27.6160 n3         1 SPC      -0.767500
     13 C15         -7.0750    23.1470    27.2910 c5         1 SPC       0.149500
     14 C16         -6.8700    23.0790    25.7350 c5         1 SPC      -0.080400
     15 C17         -7.1550    21.5870    25.3420 c5         1 SPC       0.134500
     16 C29         -5.6800    23.4800    27.9630 c          1 SPC       0.562100
     17 O31         -4.6710    22.7810    27.9640 o          1 SPC      -0.570100
     18 N32         -5.7350    24.7290    28.5840 ns         1 SPC      -0.382400
     19 O33         -4.5270    25.3790    29.0490 oh         1 SPC      -0.413100
     20 C18         -6.9900    20.8550    26.7050 c5         1 SPC       0.218800
     21 N23         -8.5850    21.4440    24.9240 n7         1 SPC      -0.599900
     22 O24         -8.7120    22.1880    23.6800 os         1 SPC      -0.290300
     23 C25         -9.9220    21.9100    22.9500 c3         1 SPC       0.153900
     24 HC21        -9.0680    18.6330    28.9250 ha         1 SPC       0.132000
     25 HC31        -7.9730    16.4460    29.1640 ha         1 SPC       0.130000
     26 HC51        -4.2380    18.3980    30.1350 ha         1 SPC       0.130000
     27 HC61        -5.3300    20.6130    29.8960 ha         1 SPC       0.132000
     28 HC81        -5.2890    13.9830    29.7930 h1         1 SPC       0.050033
     29 HC82        -6.8270    14.6800    30.3400 h1         1 SPC       0.050033
     30 HC83        -6.3940    14.7120    28.6090 h1         1 SPC       0.050033
     31 H151        -7.7820    23.9470    27.5500 h1         1 SPC       0.093700
     32 H161        -7.5200    23.7940    25.2190 hc         1 SPC       0.070700
     33 H162        -5.8470    23.3570    25.4540 hc         1 SPC       0.070700
     34 H171        -6.4680    21.2000    24.5750 h1         1 SPC       0.093700
     35 H32         -6.5460    25.3320    28.4510 hn         1 SPC       0.349500
     36 H33         -4.7350    25.6120    29.9850 ho         1 SPC       0.443000
     37 H181        -5.9330    20.7100    26.9650 h1         1 SPC       0.071200
     38 H182        -7.4710    19.8670    26.6860 h1         1 SPC       0.071200
     39 H231        -9.1500    21.9490    25.6230 hn         1 SPC       0.413000
     40 H251        -9.9530    22.4990    22.0250 h1         1 SPC       0.036700
     41 H252        -9.9790    20.8470    22.6820 h1         1 SPC       0.036700
     42 H253       -10.8050    22.1660    23.5490 h1         1 SPC       0.036700
@<TRIPOS>BOND
     1     1     2 ar  
     2     1     6 ar  
     3     1     7 1   
     4     2     3 ar  
     5     2    24 1   
     6     3     4 ar  
     7     3    25 1   
     8     4     5 ar  
     9     4    10 1   
    10     5     6 ar  
    11     5    26 1   
    12     6    27 1   
    13     7     8 2   
    14     7     9 2   
    15     7    12 1   
    16    10    11 1   
    17    11    28 1   
    18    11    29 1   
    19    11    30 1   
    20    12    13 1   
    21    12    20 1   
    22    13    14 1   
    23    13    16 1   
    24    13    31 1   
    25    14    15 1   
    26    14    32 1   
    27    14    33 1   
    28    15    20 1   
    29    15    21 1   
    30    15    34 1   
    31    16    17 2   
    32    16    18 1   
    33    18    19 1   
    34    18    35 1   
    35    19    36 1   
    36    20    37 1   
    37    20    38 1   
    38    21    22 1   
    39    21    39 1   
    40    22    23 1   
    41    23    40 1   
    42    23    41 1   
    43    23    42 1   
@<TRIPOS>SUBSTRUCTURE
     1 SPC         1 TEMP              0 ****  ****    0 ROOT
