@<TRIPOS>MOLECULE
SPC
   42    43     1     0     0
SMALL
abcg2


@<TRIPOS>ATOM
      1 C1          -7.4890    20.1000    29.6870 ca         1 SPC      -0.361500
      2 C2          -7.6140    18.8280    29.1360 ca         1 SPC       0.026000
      3 C3          -6.6350    17.8700    29.3560 ca         1 SPC      -0.198000
      4 C4          -5.5200    18.1870    30.1380 ca         1 SPC       0.202100
      5 C5          -5.4120    19.4620    30.7130 ca         1 SPC      -0.198000
      6 C6          -6.3880    20.4130    30.4870 ca         1 SPC       0.026000
      7 S11         -8.6710    21.3480    29.2910 sy         1 SPC       1.215600
      8 O12         -8.4220    22.4790    30.1540 o          1 SPC      -0.546000
      9 O13         -9.9820    20.7440    29.2560 o          1 SPC      -0.546000
     10 O35         -4.5110    17.3340    30.4010 os         1 SPC      -0.342100
     11 C8          -4.5560    16.0180    29.8370 c3         1 SPC       0.146900
     12 N14         -8.3700    21.8550    27.7660 n3         1 SPC      -0.767500
     13 C15         -7.2050    22.6920    27.4410 c5         1 SPC       0.149500
     14 C16         -7.5090    23.0800    25.9920 c5         1 SPC      -0.080400
     15 C17         -8.2590    21.8680    25.3910 c5         1 SPC       0.134500
     16 C29         -5.8980    21.8980    27.5420 c          1 SPC       0.562100
     17 O31         -5.6840    20.8930    26.8770 o          1 SPC      -0.570100
     18 N32         -5.0240    22.4040    28.4320 ns         1 SPC      -0.382400
     19 O33         -3.8170    21.7750    28.6720 oh         1 SPC      -0.413100
     20 C18         -8.7910    21.0650    26.5960 c5         1 SPC       0.218800
     21 N23         -9.3800    22.2000    24.5140 n7         1 SPC      -0.599900
     22 O24         -8.8820    23.0250    23.4450 os         1 SPC      -0.290300
     23 C25         -9.0470    22.3370    22.2100 c3         1 SPC       0.153900
     24 HC21        -8.4770    18.5750    28.5360 ha         1 SPC       0.132000
     25 HC31        -6.7480    16.8900    28.9200 ha         1 SPC       0.130000
     26 HC51        -4.5600    19.6810    31.3450 ha         1 SPC       0.130000
     27 HC61        -6.3030    21.3950    30.9290 ha         1 SPC       0.132000
     28 HC81        -3.6510    15.5220    30.1740 h1         1 SPC       0.050033
     29 HC82        -5.4320    15.4730    30.1950 h1         1 SPC       0.050033
     30 HC83        -4.5690    16.0640    28.7460 h1         1 SPC       0.050033
     31 H151        -7.1840    23.5560    28.1000 h1         1 SPC       0.093700
     32 H161        -8.1680    23.9490    26.0000 hc         1 SPC       0.070700
     33 H162        -6.6080    23.3360    25.4380 hc         1 SPC       0.070700
     34 H171        -7.5740    21.2500    24.8150 h1         1 SPC       0.093700
     35 H32         -5.2490    23.1430    29.0810 hn         1 SPC       0.349500
     36 H33         -4.0310    20.9560    29.1550 ho         1 SPC       0.443000
     37 H181        -8.3610    20.0640    26.6070 h1         1 SPC       0.071200
     38 H182        -9.8760    20.9830    26.5830 h1         1 SPC       0.071200
     39 H231       -10.0130    22.8200    25.0170 hn         1 SPC       0.413000
     40 H251        -8.6370    22.9970    21.4450 h1         1 SPC       0.036700
     41 H252        -8.4990    21.3910    22.2090 h1         1 SPC       0.036700
     42 H253       -10.1040    22.1470    22.0050 h1         1 SPC       0.036700
@<TRIPOS>BOND
     1     1     2 ar  
     2     1     6 ar  
     3     1     7 1   
     4     2     3 ar  
     5     2    24 1   
     6     3     4 ar  
     7     3    25 1   
     8     4     5 ar  
     9     4    10 1   
    10     5     6 ar  
    11     5    26 1   
    12     6    27 1   
    13     7     8 2   
    14     7     9 2   
    15     7    12 1   
    16    10    11 1   
    17    11    28 1   
    18    11    29 1   
    19    11    30 1   
    20    12    13 1   
    21    12    20 1   
    22    13    14 1   
    23    13    16 1   
    24    13    31 1   
    25    14    15 1   
    26    14    32 1   
    27    14    33 1   
    28    15    20 1   
    29    15    21 1   
    30    15    34 1   
    31    16    17 2   
    32    16    18 1   
    33    18    19 1   
    34    18    35 1   
    35    19    36 1   
    36    20    37 1   
    37    20    38 1   
    38    21    22 1   
    39    21    39 1   
    40    22    23 1   
    41    23    40 1   
    42    23    41 1   
    43    23    42 1   
@<TRIPOS>SUBSTRUCTURE
     1 SPC         1 TEMP              0 ****  ****    0 ROOT
