@<TRIPOS>MOLECULE
SPD
   29    28     1     0     0
SMALL
bcc


@<TRIPOS>ATOM
      1 N1          -0.2890     0.0540     5.5780 n8         1 SPD      -0.885800
      2 C2           0.5110    -0.0110     4.3620 c3         1 SPD       0.149800
      3 C3          -0.3740     0.0180     3.1260 c3         1 SPD      -0.078400
      4 C4           0.4260    -0.0400     1.8310 c3         1 SPD      -0.079400
      5 C5          -0.4620    -0.0220     0.5960 c3         1 SPD       0.160800
      6 N6           0.3210    -0.0660    -0.6240 n7         1 SPD      -0.804200
      7 C7          -0.4970    -0.0270    -1.8220 c3         1 SPD       0.159800
      8 C8           0.3560    -0.0280    -3.0800 c3         1 SPD      -0.082400
      9 C9          -0.4850    -0.0080    -4.3480 c3         1 SPD       0.149800
     10 N10          0.3610     0.0040    -5.5330 n8         1 SPD      -0.882800
     11 HN11        -0.7310     0.9630     5.6350 hn         1 SPD       0.335800
     12 HN12         0.3180    -0.0020     6.3860 hn         1 SPD       0.335800
     13 H21          1.2550     0.7960     4.2840 h1         1 SPD       0.026700
     14 H22          1.0770    -0.9470     4.3740 h1         1 SPD       0.026700
     15 H31         -1.0750    -0.8210     3.1690 hc         1 SPD       0.045700
     16 H32         -0.9810     0.9300     3.1380 hc         1 SPD       0.045700
     17 H41          1.1150     0.8110     1.7910 hc         1 SPD       0.044700
     18 H42          1.0450    -0.9420     1.8150 hc         1 SPD       0.044700
     19 H51         -1.1200    -0.8970     0.6130 h1         1 SPD       0.028200
     20 H52         -1.1260     0.8580     0.6390 h1         1 SPD       0.028200
     21 HN6          0.9470     0.7320    -0.6350 hn         1 SPD       0.347800
     22 H71         -1.1440    -0.9110    -1.8230 h1         1 SPD       0.026700
     23 H72         -1.1730     0.8440    -1.8400 h1         1 SPD       0.026700
     24 H81          1.0150     0.8480    -3.0710 hc         1 SPD       0.053200
     25 H82          1.0020    -0.9100    -3.0860 hc         1 SPD       0.053200
     26 H91         -1.1050    -0.9080    -4.3790 h1         1 SPD       0.025700
     27 H92         -1.1820     0.8420    -4.3010 h1         1 SPD       0.025700
     28 H101        -0.2200    -0.0220    -6.3610 hn         1 SPD       0.336300
     29 H102         0.8550     0.8880    -5.5780 hn         1 SPD       0.336300
@<TRIPOS>BOND
     1     1     2 1   
     2     1    11 1   
     3     1    12 1   
     4     2     3 1   
     5     2    13 1   
     6     2    14 1   
     7     3     4 1   
     8     3    15 1   
     9     3    16 1   
    10     4     5 1   
    11     4    17 1   
    12     4    18 1   
    13     5     6 1   
    14     5    19 1   
    15     5    20 1   
    16     6     7 1   
    17     6    21 1   
    18     7     8 1   
    19     7    22 1   
    20     7    23 1   
    21     8     9 1   
    22     8    24 1   
    23     8    25 1   
    24     9    10 1   
    25     9    26 1   
    26     9    27 1   
    27    10    28 1   
    28    10    29 1   
@<TRIPOS>SUBSTRUCTURE
     1 SPD         1 TEMP              0 ****  ****    0 ROOT
