@<TRIPOS>MOLECULE
SPD
   29    28     1     0     0
SMALL
No Charge or Current Charge


@<TRIPOS>ATOM
      1 N1          -0.1830    -0.0260     5.6730 n8         1 SPD      -0.996200
      2 C2           0.5690    -0.0300     4.4050 c3         1 SPD       0.149800
      3 C3          -0.3760    -0.0070     3.1860 c3         1 SPD      -0.078400
      4 C4           0.3820    -0.0130     1.8390 c3         1 SPD      -0.079400
      5 C5          -0.5620     0.0070     0.6200 c3         1 SPD       0.160800
      6 N6           0.2200    -0.0060    -0.6290 n7         1 SPD      -0.859400
      7 C7          -0.5810    -0.0020    -1.8670 c3         1 SPD       0.159800
      8 C8           0.3410    -0.0350    -3.1020 c3         1 SPD      -0.082400
      9 C9          -0.4510    -0.0400    -4.4240 c3         1 SPD       0.149800
     10 N10          0.4440    -0.0770    -5.5960 n8         1 SPD      -0.993200
     11 HN11        -0.7040     0.8560     5.7490 hn         1 SPD       0.391000
     12 HN12         0.4820     0.0210     6.4560 hn         1 SPD       0.391000
     13 H21          1.2260     0.8510     4.3820 h1         1 SPD       0.026700
     14 H22          1.1950    -0.9320     4.3710 h1         1 SPD       0.026700
     15 H31         -1.0410    -0.8780     3.2280 hc         1 SPD       0.045700
     16 H32         -1.0110     0.8870     3.2360 hc         1 SPD       0.045700
     17 H41          1.0470     0.8580     1.7970 hc         1 SPD       0.044700
     18 H42          1.0170    -0.9070     1.7890 hc         1 SPD       0.044700
     19 H51         -1.2230    -0.8700     0.6640 h1         1 SPD       0.028200
     20 H52         -1.1920     0.9060     0.6680 h1         1 SPD       0.028200
     21 HN6          0.8220     0.8270    -0.6360 hn         1 SPD       0.403000
     22 H71         -1.2450    -0.8770    -1.8930 h1         1 SPD       0.026700
     23 H72         -1.2090     0.8980    -1.9120 h1         1 SPD       0.026700
     24 H81          1.0060     0.8360    -3.0800 hc         1 SPD       0.053200
     25 H82          0.9720    -0.9310    -3.0550 hc         1 SPD       0.053200
     26 H91         -1.1080    -0.9200    -4.4580 h1         1 SPD       0.025700
     27 H92         -1.0750     0.8620    -4.4860 h1         1 SPD       0.025700
     28 H101        -0.1220    -0.0200    -6.4520 hn         1 SPD       0.391500
     29 H102         1.0000     0.7870    -5.6190 hn         1 SPD       0.391500
@<TRIPOS>BOND
     1     1     2 1   
     2     1    11 1   
     3     1    12 1   
     4     2     3 1   
     5     2    13 1   
     6     2    14 1   
     7     3     4 1   
     8     3    15 1   
     9     3    16 1   
    10     4     5 1   
    11     4    17 1   
    12     4    18 1   
    13     5     6 1   
    14     5    19 1   
    15     5    20 1   
    16     6     7 1   
    17     6    21 1   
    18     7     8 1   
    19     7    22 1   
    20     7    23 1   
    21     8     9 1   
    22     8    24 1   
    23     8    25 1   
    24     9    10 1   
    25     9    26 1   
    26     9    27 1   
    27    10    28 1   
    28    10    29 1   
@<TRIPOS>SUBSTRUCTURE
     1 SPD         1 TEMP              0 ****  ****    0 ROOT
