@<TRIPOS>MOLECULE
SPE
   37    36     1     0     0
SMALL
bcc


@<TRIPOS>ATOM
      1 N1          -0.5070    -0.0150     7.3530 n8         1 SPE      -0.883300
      2 C2           0.3760    -0.0650     6.1960 c3         1 SPE       0.149800
      3 C3          -0.4180     0.0260     4.9020 c3         1 SPE      -0.082900
      4 C4           0.4740    -0.0220     3.6720 c3         1 SPE       0.159800
      5 N5          -0.2990     0.0710     2.4490 n7         1 SPE      -0.802700
      6 C6           0.5240     0.0010     1.2560 c3         1 SPE       0.160800
      7 C7          -0.3190     0.0720    -0.0070 c3         1 SPE      -0.082400
      8 C8           0.5310     0.0130    -1.2670 c3         1 SPE       0.160800
      9 N9          -0.2870     0.0740    -2.4620 n7         1 SPE      -0.802700
     10 C10          0.4930     0.0070    -3.6830 c3         1 SPE       0.159800
     11 C11         -0.3970     0.0330    -4.9160 c3         1 SPE      -0.082900
     12 C12          0.4040    -0.0150    -6.2080 c3         1 SPE       0.149800
     13 N13         -0.4790    -0.0010    -7.3670 n8         1 SPE      -0.883300
     14 HN11        -0.9360     0.9020     7.4010 hn         1 SPE       0.336550
     15 HN12         0.0420    -0.1000     8.1980 hn         1 SPE       0.336550
     16 H21          1.1440     0.7220     6.1980 h1         1 SPE       0.025700
     17 H22          0.9140    -1.0170     6.2180 h1         1 SPE       0.025700
     18 H31         -1.1410    -0.7950     4.8680 hc         1 SPE       0.053450
     19 H32         -0.9960     0.9570     4.8890 hc         1 SPE       0.053450
     20 H41          1.1730     0.8210     3.7000 h1         1 SPE       0.025950
     21 H42          1.0960    -0.9330     3.7090 h1         1 SPE       0.025950
     22 HN5         -0.9630    -0.6950     2.4280 hn         1 SPE       0.349300
     23 H61          1.2220     0.8450     1.2730 h1         1 SPE       0.026700
     24 H62          1.1480    -0.9080     1.2290 h1         1 SPE       0.026700
     25 H71         -1.0320    -0.7600    -0.0130 hc         1 SPE       0.053200
     26 H72         -0.9070     0.9940    -0.0040 hc         1 SPE       0.053200
     27 H81          1.2180     0.8670    -1.2790 h1         1 SPE       0.026700
     28 H82          1.1670    -0.8880    -1.2380 h1         1 SPE       0.026700
     29 HN9         -0.9360    -0.7060    -2.4500 hn         1 SPE       0.349300
     30 H101         1.1660     0.8710    -3.7070 h1         1 SPE       0.025950
     31 H102         1.1420    -0.8840    -3.7190 h1         1 SPE       0.025950
     32 H111        -1.0820    -0.8230    -4.8850 hc         1 SPE       0.053450
     33 H112        -1.0160     0.9340    -4.9030 hc         1 SPE       0.053450
     34 H121         1.0490     0.8670    -6.2600 h1         1 SPE       0.025700
     35 H122         1.0750    -0.8860    -6.1810 h1         1 SPE       0.025700
     36 HN31         0.0760     0.0070    -8.2130 hn         1 SPE       0.336550
     37 HN32        -1.0000    -0.8690    -7.3940 hn         1 SPE       0.336550
@<TRIPOS>BOND
     1     1     2 1   
     2     1    14 1   
     3     1    15 1   
     4     2     3 1   
     5     2    16 1   
     6     2    17 1   
     7     3     4 1   
     8     3    18 1   
     9     3    19 1   
    10     4     5 1   
    11     4    20 1   
    12     4    21 1   
    13     5     6 1   
    14     5    22 1   
    15     6     7 1   
    16     6    23 1   
    17     6    24 1   
    18     7     8 1   
    19     7    25 1   
    20     7    26 1   
    21     8     9 1   
    22     8    27 1   
    23     8    28 1   
    24     9    10 1   
    25     9    29 1   
    26    10    11 1   
    27    10    30 1   
    28    10    31 1   
    29    11    12 1   
    30    11    32 1   
    31    11    33 1   
    32    12    13 1   
    33    12    34 1   
    34    12    35 1   
    35    13    36 1   
    36    13    37 1   
@<TRIPOS>SUBSTRUCTURE
     1 SPE         1 TEMP              0 ****  ****    0 ROOT
