@<TRIPOS>MOLECULE
SPE
   37    36     1     0     0
SMALL
No Charge or Current Charge


@<TRIPOS>ATOM
      1 N1          -0.7190     0.0640     7.4100 n8         1 SPE      -0.993700
      2 C2           0.2530     0.0120     6.3020 c3         1 SPE       0.149800
      3 C3          -0.4490     0.0170     4.9290 c3         1 SPE      -0.082900
      4 C4           0.5520    -0.0450     3.7590 c3         1 SPE       0.159800
      5 N5          -0.1630    -0.0260     2.4710 n7         1 SPE      -0.857900
      6 C6           0.7000    -0.0640     1.2760 c3         1 SPE       0.160800
      7 C7          -0.1550    -0.0210    -0.0050 c3         1 SPE      -0.082400
      8 C8           0.7050    -0.0530    -1.2830 c3         1 SPE       0.160800
      9 N9          -0.1540    -0.0040    -2.4810 n7         1 SPE      -0.857900
     10 C10          0.5670    -0.0110    -3.7670 c3         1 SPE       0.159800
     11 C11         -0.4290     0.0640    -4.9410 c3         1 SPE      -0.082900
     12 C12          0.2780     0.0670    -6.3100 c3         1 SPE       0.149800
     13 N13         -0.6880     0.1430    -7.4220 n8         1 SPE      -0.993700
     14 HN11        -1.2250     0.9570     7.3690 hn         1 SPE       0.391750
     15 HN12        -0.2080     0.1190     8.3010 hn         1 SPE       0.391750
     16 H21          0.9220     0.8800     6.3790 h1         1 SPE       0.025700
     17 H22          0.8540    -0.9020     6.4060 h1         1 SPE       0.025700
     18 H31         -1.1310    -0.8390     4.8690 hc         1 SPE       0.053450
     19 H32         -1.0560     0.9260     4.8350 hc         1 SPE       0.053450
     20 H41          1.2360     0.8120     3.8270 h1         1 SPE       0.025950
     21 H42          1.1520    -0.9610     3.8490 h1         1 SPE       0.025950
     22 HN5         -0.7870    -0.8420     2.4400 hn         1 SPE       0.404500
     23 H61          1.3870     0.7930     1.2760 h1         1 SPE       0.026700
     24 H62          1.3060    -0.9810     1.2720 h1         1 SPE       0.026700
     25 H71         -0.8440    -0.8740    -0.0100 hc         1 SPE       0.053200
     26 H72         -0.7630     0.8910    -0.0020 hc         1 SPE       0.053200
     27 H81          1.3920     0.8040    -1.2730 h1         1 SPE       0.026700
     28 H82          1.3110    -0.9690    -1.2860 h1         1 SPE       0.026700
     29 HN9         -0.7780    -0.8190    -2.4600 hn         1 SPE       0.404500
     30 H101         1.2510     0.8470    -3.8240 h1         1 SPE       0.025950
     31 H102         1.1670    -0.9260    -3.8630 h1         1 SPE       0.025950
     32 H111        -1.1160    -0.7900    -4.8880 hc         1 SPE       0.053450
     33 H112        -1.0320     0.9750    -4.8430 hc         1 SPE       0.053450
     34 H121         0.9550     0.9300    -6.3740 h1         1 SPE       0.025700
     35 H122         0.8720    -0.8500    -6.4220 h1         1 SPE       0.025700
     36 HN31        -0.1780     0.0840    -8.3130 hn         1 SPE       0.391750
     37 HN32        -1.2670    -0.7050    -7.4210 hn         1 SPE       0.391750
@<TRIPOS>BOND
     1     1     2 1   
     2     1    14 1   
     3     1    15 1   
     4     2     3 1   
     5     2    16 1   
     6     2    17 1   
     7     3     4 1   
     8     3    18 1   
     9     3    19 1   
    10     4     5 1   
    11     4    20 1   
    12     4    21 1   
    13     5     6 1   
    14     5    22 1   
    15     6     7 1   
    16     6    23 1   
    17     6    24 1   
    18     7     8 1   
    19     7    25 1   
    20     7    26 1   
    21     8     9 1   
    22     8    27 1   
    23     8    28 1   
    24     9    10 1   
    25     9    29 1   
    26    10    11 1   
    27    10    30 1   
    28    10    31 1   
    29    11    12 1   
    30    11    32 1   
    31    11    33 1   
    32    12    13 1   
    33    12    34 1   
    34    12    35 1   
    35    13    36 1   
    36    13    37 1   
@<TRIPOS>SUBSTRUCTURE
     1 SPE         1 TEMP              0 ****  ****    0 ROOT
