@<TRIPOS>MOLECULE
SPH
   58    57     1     0     0
SMALL
No Charge or Current Charge


@<TRIPOS>ATOM
      1 C1          30.9450    49.8420   113.1380 c3         1 SPH       0.167600
      2 O1          31.9260    48.8280   113.4490 oh         1 SPH      -0.680000
      3 C2          30.8540    50.9170   114.2680 c3         1 SPH       0.171500
      4 N2          30.5860    50.2800   115.5910 n8         1 SPH      -0.995200
      5 C3          32.1250    51.8390   114.3170 c3         1 SPH       0.168500
      6 O3          32.2250    52.6560   113.1530 oh         1 SPH      -0.665000
      7 C4          32.1720    52.7690   115.5190 c2         1 SPH      -0.284200
      8 C5          31.4170    53.8550   115.7830 c2         1 SPH      -0.179200
      9 C6          30.2910    54.4470   114.9510 c3         1 SPH      -0.055200
     10 C7          30.6740    55.8160   114.3500 c3         1 SPH      -0.068400
     11 C8          29.5490    56.4400   113.4960 c3         1 SPH      -0.075400
     12 C9          29.9340    57.8110   112.8970 c3         1 SPH      -0.075400
     13 C10         28.8080    58.4340   112.0430 c3         1 SPH      -0.076400
     14 C11         29.1950    59.8080   111.4470 c3         1 SPH      -0.072400
     15 C12         28.1270    60.4260   110.5120 c3         1 SPH      -0.072400
     16 C13         26.8030    60.8080   111.2150 c3         1 SPH      -0.076400
     17 C14         25.7980    61.5000   110.2690 c3         1 SPH      -0.075400
     18 C15         24.4730    61.8800   110.9680 c3         1 SPH      -0.074400
     19 C16         23.4680    62.5720   110.0220 c3         1 SPH      -0.075400
     20 C17         22.1440    62.9510   110.7210 c3         1 SPH      -0.075400
     21 C18         21.1400    63.6430   109.7780 c3         1 SPH      -0.088100
     22 H11         31.1880    50.3340   112.1860 h1         1 SPH       0.038700
     23 H12         29.9550    49.3790   113.0180 h1         1 SPH       0.038700
     24 HO1         31.9100    48.1790   112.7100 ho         1 SPH       0.443000
     25 H2          29.9940    51.5610   114.0430 h1         1 SPH       0.068700
     26 HN21        30.8980    50.9320   116.3190 hn         1 SPH       0.402000
     27 HN22        31.2360    49.4890   115.6770 hn         1 SPH       0.402000
     28 H3          33.0050    51.1820   114.3710 h1         1 SPH       0.052700
     29 HO3         32.0340    53.5640   113.4720 ho         1 SPH       0.445000
     30 H4          32.9440    52.4820   116.2350 ha         1 SPH       0.172000
     31 H5          31.5980    54.4100   116.7070 ha         1 SPH       0.165000
     32 H61         29.9920    53.7770   114.1390 hc         1 SPH       0.055700
     33 H62         29.4010    54.5700   115.5810 hc         1 SPH       0.055700
     34 H71         30.9330    56.5050   115.1640 hc         1 SPH       0.036700
     35 H72         31.5740    55.7000   113.7330 hc         1 SPH       0.036700
     36 H81         29.2910    55.7510   112.6810 hc         1 SPH       0.039700
     37 H82         28.6500    56.5560   114.1140 hc         1 SPH       0.039700
     38 H91         30.1910    58.5000   113.7110 hc         1 SPH       0.036700
     39 H92         30.8330    57.6940   112.2790 hc         1 SPH       0.036700
     40 H101        28.5520    57.7460   111.2270 hc         1 SPH       0.038200
     41 H102        27.9120    58.5420   112.6660 hc         1 SPH       0.038200
     42 H111        29.4110    60.5110   112.2620 hc         1 SPH       0.037200
     43 H112        30.1260    59.6960   110.8770 hc         1 SPH       0.037200
     44 H121        28.5530    61.3260   110.0520 hc         1 SPH       0.037700
     45 H122        27.9160    59.7260   109.6940 hc         1 SPH       0.037700
     46 H131        26.3330    59.9070   111.6290 hc         1 SPH       0.037700
     47 H132        27.0220    61.4740   112.0590 hc         1 SPH       0.037700
     48 H141        26.2580    62.4060   109.8550 hc         1 SPH       0.036700
     49 H142        25.5810    60.8350   109.4240 hc         1 SPH       0.036700
     50 H151        24.0130    60.9740   111.3820 hc         1 SPH       0.036700
     51 H152        24.6900    62.5450   111.8130 hc         1 SPH       0.036700
     52 H161        23.9280    63.4780   109.6080 hc         1 SPH       0.036700
     53 H162        23.2520    61.9070   109.1770 hc         1 SPH       0.036700
     54 H171        21.6790    62.0480   111.1350 hc         1 SPH       0.036700
     55 H172        22.3560    63.6180   111.5660 hc         1 SPH       0.036700
     56 H181        20.2180    63.8920   110.3170 hc         1 SPH       0.031367
     57 H182        21.5630    64.5700   109.3740 hc         1 SPH       0.031367
     58 H183        20.8800    62.9860   108.9390 hc         1 SPH       0.031367
@<TRIPOS>BOND
     1     1     2 1   
     2     1     3 1   
     3     1    22 1   
     4     1    23 1   
     5     2    24 1   
     6     3     4 1   
     7     3     5 1   
     8     3    25 1   
     9     4    26 1   
    10     4    27 1   
    11     5     6 1   
    12     5     7 1   
    13     5    28 1   
    14     6    29 1   
    15     7     8 2   
    16     7    30 1   
    17     8     9 1   
    18     8    31 1   
    19     9    10 1   
    20     9    32 1   
    21     9    33 1   
    22    10    11 1   
    23    10    34 1   
    24    10    35 1   
    25    11    12 1   
    26    11    36 1   
    27    11    37 1   
    28    12    13 1   
    29    12    38 1   
    30    12    39 1   
    31    13    14 1   
    32    13    40 1   
    33    13    41 1   
    34    14    15 1   
    35    14    42 1   
    36    14    43 1   
    37    15    16 1   
    38    15    44 1   
    39    15    45 1   
    40    16    17 1   
    41    16    46 1   
    42    16    47 1   
    43    17    18 1   
    44    17    48 1   
    45    17    49 1   
    46    18    19 1   
    47    18    50 1   
    48    18    51 1   
    49    19    20 1   
    50    19    52 1   
    51    19    53 1   
    52    20    21 1   
    53    20    54 1   
    54    20    55 1   
    55    21    56 1   
    56    21    57 1   
    57    21    58 1   
@<TRIPOS>SUBSTRUCTURE
     1 SPH         1 TEMP              0 ****  ****    0 ROOT
