@<TRIPOS>MOLECULE
SPH
   58    57     1     0     0
SMALL
abcg2


@<TRIPOS>ATOM
      1 C1          31.1190    49.8980   113.2080 c3         1 SPH       0.167600
      2 O1          32.3150    49.1390   113.4250 oh         1 SPH      -0.680000
      3 C2          30.9290    50.8550   114.3730 c3         1 SPH       0.171500
      4 N2          30.7630    50.0860   115.6100 n8         1 SPH      -0.995200
      5 C3          32.0620    51.9010   114.4530 c3         1 SPH       0.168500
      6 O3          32.0790    52.6050   113.1990 oh         1 SPH      -0.665000
      7 C4          31.9230    52.8170   115.6450 c2         1 SPH      -0.284200
      8 C5          31.1030    53.8600   115.7810 c2         1 SPH      -0.179200
      9 C6          30.1130    54.4000   114.7950 c3         1 SPH      -0.055200
     10 C7          30.5070    55.7880   114.2710 c3         1 SPH      -0.068400
     11 C8          29.4660    56.3820   113.3250 c3         1 SPH      -0.075400
     12 C9          29.8390    57.7670   112.8030 c3         1 SPH      -0.075400
     13 C10         28.7770    58.3750   111.8900 c3         1 SPH      -0.076400
     14 C11         29.1600    59.7530   111.3490 c3         1 SPH      -0.072400
     15 C12         28.1010    60.3910   110.4460 c3         1 SPH      -0.072400
     16 C13         26.8400    60.8420   111.1840 c3         1 SPH      -0.076400
     17 C14         25.7970    61.4780   110.2690 c3         1 SPH      -0.075400
     18 C15         24.5550    61.9650   111.0130 c3         1 SPH      -0.074400
     19 C16         23.4950    62.5760   110.0990 c3         1 SPH      -0.075400
     20 C17         22.2590    63.0730   110.8470 c3         1 SPH      -0.075400
     21 C18         21.2010    63.6710   109.9230 c3         1 SPH      -0.088100
     22 H11         31.1880    50.4610   112.2740 h1         1 SPH       0.038700
     23 H12         30.2520    49.2330   113.1570 h1         1 SPH       0.038700
     24 HO1         32.3900    48.4840   112.7220 ho         1 SPH       0.443000
     25 H2          29.9980    51.3990   114.1880 h1         1 SPH       0.068700
     26 HN21        30.6350    50.7180   116.3930 hn         1 SPH       0.402000
     27 HN22        31.6110    49.5600   115.7950 hn         1 SPH       0.402000
     28 H3          33.0050    51.3540   114.5620 h1         1 SPH       0.052700
     29 HO3         32.6330    53.3870   113.3070 ho         1 SPH       0.445000
     30 H4          32.5760    52.5770   116.4790 ha         1 SPH       0.172000
     31 H5          31.1630    54.4160   116.7150 ha         1 SPH       0.165000
     32 H61         29.9910    53.7200   113.9530 hc         1 SPH       0.055700
     33 H62         29.1400    54.4830   115.2920 hc         1 SPH       0.055700
     34 H71         30.6590    56.4660   115.1180 hc         1 SPH       0.036700
     35 H72         31.4700    55.7110   113.7560 hc         1 SPH       0.036700
     36 H81         29.3220    55.7030   112.4770 hc         1 SPH       0.039700
     37 H82         28.5020    56.4380   113.8420 hc         1 SPH       0.039700
     38 H91         30.0090    58.4390   113.6530 hc         1 SPH       0.036700
     39 H92         30.7920    57.7070   112.2640 hc         1 SPH       0.036700
     40 H101        28.5960    57.7000   111.0460 hc         1 SPH       0.038200
     41 H102        27.8340    58.4390   112.4400 hc         1 SPH       0.038200
     42 H111        29.3690    60.4260   112.1880 hc         1 SPH       0.037200
     43 H112        30.0980    59.6590   110.7910 hc         1 SPH       0.037200
     44 H121        28.5370    61.2590   109.9400 hc         1 SPH       0.037700
     45 H122        27.8250    59.6820   109.6560 hc         1 SPH       0.037700
     46 H131        26.3860    59.9910   111.7010 hc         1 SPH       0.037700
     47 H132        27.1230    61.5590   111.9630 hc         1 SPH       0.037700
     48 H141        26.2490    62.3200   109.7320 hc         1 SPH       0.036700
     49 H142        25.4980    60.7520   109.5040 hc         1 SPH       0.036700
     50 H151        24.1140    61.1260   111.5640 hc         1 SPH       0.036700
     51 H152        24.8530    62.7040   111.7650 hc         1 SPH       0.036700
     52 H161        23.9360    63.4100   109.5400 hc         1 SPH       0.036700
     53 H162        23.1900    61.8340   109.3520 hc         1 SPH       0.036700
     54 H171        21.8250    62.2420   111.4120 hc         1 SPH       0.036700
     55 H172        22.5640    63.8200   111.5870 hc         1 SPH       0.036700
     56 H181        20.3310    64.0210   110.4840 hc         1 SPH       0.031367
     57 H182        21.6030    64.5210   109.3660 hc         1 SPH       0.031367
     58 H183        20.8540    62.9320   109.1960 hc         1 SPH       0.031367
@<TRIPOS>BOND
     1     1     2 1   
     2     1     3 1   
     3     1    22 1   
     4     1    23 1   
     5     2    24 1   
     6     3     4 1   
     7     3     5 1   
     8     3    25 1   
     9     4    26 1   
    10     4    27 1   
    11     5     6 1   
    12     5     7 1   
    13     5    28 1   
    14     6    29 1   
    15     7     8 2   
    16     7    30 1   
    17     8     9 1   
    18     8    31 1   
    19     9    10 1   
    20     9    32 1   
    21     9    33 1   
    22    10    11 1   
    23    10    34 1   
    24    10    35 1   
    25    11    12 1   
    26    11    36 1   
    27    11    37 1   
    28    12    13 1   
    29    12    38 1   
    30    12    39 1   
    31    13    14 1   
    32    13    40 1   
    33    13    41 1   
    34    14    15 1   
    35    14    42 1   
    36    14    43 1   
    37    15    16 1   
    38    15    44 1   
    39    15    45 1   
    40    16    17 1   
    41    16    46 1   
    42    16    47 1   
    43    17    18 1   
    44    17    48 1   
    45    17    49 1   
    46    18    19 1   
    47    18    50 1   
    48    18    51 1   
    49    19    20 1   
    50    19    52 1   
    51    19    53 1   
    52    20    21 1   
    53    20    54 1   
    54    20    55 1   
    55    21    56 1   
    56    21    57 1   
    57    21    58 1   
@<TRIPOS>SUBSTRUCTURE
     1 SPH         1 TEMP              0 ****  ****    0 ROOT
