@<TRIPOS>MOLECULE
SPI
   54    56     1     0     0
SMALL
No Charge or Current Charge


@<TRIPOS>ATOM
      1 S1           0.8090     2.3070    -1.8780 sy         1 SPI       1.160600
      2 O1           2.0340     2.9450    -1.3840 o          1 SPI      -0.554500
      3 O2          -0.3430     3.1080    -2.3060 o          1 SPI      -0.554500
      4 C1           1.3260     1.1660    -3.1610 ca         1 SPI      -0.306500
      5 C2           0.8450     1.3010    -4.4770 ca         1 SPI       0.040000
      6 C3           1.2700     0.4020    -5.4680 ca         1 SPI      -0.197500
      7 C4           2.1710    -0.6280    -5.1590 ca         1 SPI       0.201100
      8 C5           2.6590    -0.7550    -3.8410 ca         1 SPI      -0.197500
      9 C6           2.2390     0.1430    -2.8450 ca         1 SPI       0.040000
     10 O3           2.5490    -1.4800    -6.1780 os         1 SPI      -0.334100
     11 C7           3.4590    -2.5730    -5.9650 c3         1 SPI       0.146900
     12 N1           0.2920     1.2690    -0.6190 n3         1 SPI      -0.730500
     13 C8          -0.9970     0.4960    -0.8130 c6         1 SPI       0.114500
     14 C9          -1.0930    -0.6040     0.2910 c6         1 SPI       0.102000
     15 N2          -0.9310    -0.1170     1.6910 n          1 SPI      -0.395800
     16 C10          0.1080     0.9380     1.8860 c6         1 SPI       0.101000
     17 C11          0.2620     1.9350     0.7110 c6         1 SPI       0.181800
     18 C12         -1.3670    -0.9210     2.7610 c          1 SPI       0.643100
     19 O4          -2.0580    -1.9190     2.6150 o          1 SPI      -0.541000
     20 O5          -0.9360    -0.4520     3.9700 os         1 SPI      -0.453100
     21 C13         -1.3170    -1.1820     5.1460 c3         1 SPI       0.230900
     22 C14         -0.7230    -0.4770     6.3580 ca         1 SPI      -0.105300
     23 C15         -1.4550     0.5260     7.0260 ca         1 SPI      -0.084500
     24 C16         -0.9050     1.1770     8.1450 ca         1 SPI      -0.115500
     25 C17          0.3780     0.8320     8.6010 ca         1 SPI      -0.096000
     26 C18          1.1130    -0.1650     7.9360 ca         1 SPI      -0.115500
     27 C19          0.5650    -0.8170     6.8180 ca         1 SPI      -0.084500
     28 C20         -1.2960    -0.1200    -2.2340 c          1 SPI       0.604100
     29 NA          -0.9330    -1.4530    -2.4480 ns         1 SPI      -0.364400
     30 OA          -0.9840    -2.0340    -3.7750 oh         1 SPI      -0.409100
     31 OB          -1.8450     0.5330    -3.1160 o          1 SPI      -0.571100
     32 HC21         0.1420     2.0920    -4.7330 ha         1 SPI       0.131000
     33 HC31         0.8950     0.5020    -6.4830 ha         1 SPI       0.127500
     34 HC51         3.3600    -1.5390    -3.5710 ha         1 SPI       0.127500
     35 HC61         2.6200     0.0410    -1.8300 ha         1 SPI       0.131000
     36 HC71         3.6190    -3.1210    -6.9010 h1         1 SPI       0.046033
     37 HC72         4.4330    -2.2070    -5.6150 h1         1 SPI       0.046033
     38 HC73         3.0590    -3.2760    -5.2240 h1         1 SPI       0.046033
     39 HC81        -1.8410     1.1830    -0.6530 h1         1 SPI       0.059700
     40 HC91        -0.3140    -1.3600     0.1200 h1         1 SPI       0.087200
     41 HC92        -2.0650    -1.1090     0.1950 h1         1 SPI       0.087200
     42 H101         1.0740     0.4390     2.0440 h1         1 SPI       0.073700
     43 H102        -0.1080     1.5190     2.7940 h1         1 SPI       0.073700
     44 H111         1.1830     2.5080     0.8950 h1         1 SPI       0.063700
     45 H112        -0.5680     2.6550     0.7500 h1         1 SPI       0.063700
     46 H131        -2.4110    -1.2230     5.2430 h1         1 SPI       0.058200
     47 H132        -0.9430    -2.2140     5.1020 h1         1 SPI       0.058200
     48 H151        -2.4480     0.8010     6.6780 ha         1 SPI       0.115500
     49 H161        -1.4750     1.9500     8.6570 ha         1 SPI       0.116000
     50 H171         0.8030     1.3370     9.4660 ha         1 SPI       0.114000
     51 H181         2.1080    -0.4310     8.2870 ha         1 SPI       0.116000
     52 H191         1.1410    -1.5850     6.3080 ha         1 SPI       0.115500
     53 HNA         -0.3050    -1.9110    -1.7900 hn         1 SPI       0.348500
     54 HOA         -1.4690    -2.8800    -3.6410 ho         1 SPI       0.441000
@<TRIPOS>BOND
     1     1     2 2   
     2     1     3 2   
     3     1     4 1   
     4     1    12 1   
     5     4     5 ar  
     6     4     9 ar  
     7     5     6 ar  
     8     5    32 1   
     9     6     7 ar  
    10     6    33 1   
    11     7     8 ar  
    12     7    10 1   
    13     8     9 ar  
    14     8    34 1   
    15     9    35 1   
    16    10    11 1   
    17    11    36 1   
    18    11    37 1   
    19    11    38 1   
    20    12    13 1   
    21    12    17 1   
    22    13    14 1   
    23    13    28 1   
    24    13    39 1   
    25    14    15 1   
    26    14    40 1   
    27    14    41 1   
    28    15    16 1   
    29    15    18 1   
    30    16    17 1   
    31    16    42 1   
    32    16    43 1   
    33    17    44 1   
    34    17    45 1   
    35    18    19 2   
    36    18    20 1   
    37    20    21 1   
    38    21    22 1   
    39    21    46 1   
    40    21    47 1   
    41    22    23 ar  
    42    22    27 ar  
    43    23    24 ar  
    44    23    48 1   
    45    24    25 ar  
    46    24    49 1   
    47    25    26 ar  
    48    25    50 1   
    49    26    27 ar  
    50    26    51 1   
    51    27    52 1   
    52    28    29 1   
    53    28    31 2   
    54    29    30 1   
    55    29    53 1   
    56    30    54 1   
@<TRIPOS>SUBSTRUCTURE
     1 SPI         1 TEMP              0 ****  ****    0 ROOT
