@<TRIPOS>MOLECULE
SPI
   54    56     1     0     0
SMALL
abcg2


@<TRIPOS>ATOM
      1 S1          -0.2140     1.3990    -1.8270 sy         1 SPI       1.160600
      2 O1           0.3330     2.6180    -1.2510 o          1 SPI      -0.554500
      3 O2          -1.5310     1.4330    -2.4470 o          1 SPI      -0.554500
      4 C1           0.9480     0.8150    -3.0130 ca         1 SPI      -0.306500
      5 C2           0.5130     0.2860    -4.2230 ca         1 SPI       0.040000
      6 C3           1.4380    -0.1400    -5.1520 ca         1 SPI      -0.197500
      7 C4           2.8070    -0.0480    -4.8850 ca         1 SPI       0.201100
      8 C5           3.2370     0.4920    -3.6710 ca         1 SPI      -0.197500
      9 C6           2.3050     0.9280    -2.7440 ca         1 SPI       0.040000
     10 O3           3.6280    -0.4890    -5.8430 os         1 SPI      -0.334100
     11 C7           5.0280    -0.4140    -5.6350 c3         1 SPI       0.146900
     12 N1          -0.2450     0.2310    -0.6220 n3         1 SPI      -0.730500
     13 C8          -1.4790    -0.5410    -0.4720 c6         1 SPI       0.114500
     14 C9          -1.2140    -1.7370     0.4570 c6         1 SPI       0.102000
     15 N2          -0.6420    -1.3070     1.7050 n          1 SPI      -0.395800
     16 C10          0.6100    -0.6060     1.5140 c6         1 SPI       0.101000
     17 C11          0.3880     0.6180     0.6470 c6         1 SPI       0.181800
     18 C12         -1.3910    -1.2840     2.8340 c          1 SPI       0.643100
     19 O4          -2.5090    -1.7530     2.9240 o          1 SPI      -0.541000
     20 O5          -0.7500    -0.7090     3.8490 os         1 SPI      -0.453100
     21 C13         -1.4230    -0.6820     5.1140 c3         1 SPI       0.230900
     22 C14         -0.5230     0.0350     6.0720 ca         1 SPI      -0.105300
     23 C15         -0.6860     1.3960     6.3110 ca         1 SPI      -0.084500
     24 C16          0.1590     2.0650     7.1880 ca         1 SPI      -0.115500
     25 C17          1.1780     1.3750     7.8310 ca         1 SPI      -0.096000
     26 C18          1.3500     0.0170     7.5960 ca         1 SPI      -0.115500
     27 C19          0.5020    -0.6480     6.7210 ca         1 SPI      -0.084500
     28 C20         -1.9310    -1.1490    -1.7940 c          1 SPI       0.604100
     29 NA          -3.2570    -1.0890    -1.9670 ns         1 SPI      -0.364400
     30 OA          -3.8440    -1.7070    -3.0250 oh         1 SPI      -0.409100
     31 OB          -1.1610    -1.7210    -2.5410 o          1 SPI      -0.571100
     32 HC21        -0.5400     0.2100    -4.4520 ha         1 SPI       0.131000
     33 HC31         1.1060    -0.5460    -6.0990 ha         1 SPI       0.127500
     34 HC51         4.2870     0.5910    -3.4320 ha         1 SPI       0.127500
     35 HC61         2.6600     1.3610    -1.8190 ha         1 SPI       0.131000
     36 HC71         5.4930    -0.8190    -6.5300 h1         1 SPI       0.046033
     37 HC72         5.3620     0.6170    -5.4990 h1         1 SPI       0.046033
     38 HC73         5.3410    -1.0080    -4.7740 h1         1 SPI       0.046033
     39 HC81        -2.2730     0.0710    -0.0260 h1         1 SPI       0.059700
     40 HC91        -0.5150    -2.4180    -0.0340 h1         1 SPI       0.087200
     41 HC92        -2.1460    -2.2690     0.6270 h1         1 SPI       0.087200
     42 H101         1.3150    -1.2840     1.0260 h1         1 SPI       0.073700
     43 H102         1.0440    -0.3010     2.4600 h1         1 SPI       0.073700
     44 H111         1.3570     1.0740     0.4520 h1         1 SPI       0.063700
     45 H112        -0.2240     1.3440     1.1920 h1         1 SPI       0.063700
     46 H131        -2.3800    -0.1660     5.0200 h1         1 SPI       0.058200
     47 H132        -1.6180    -1.7020     5.4530 h1         1 SPI       0.058200
     48 H151        -1.4810     1.9380     5.8130 ha         1 SPI       0.115500
     49 H161         0.0180     3.1220     7.3710 ha         1 SPI       0.116000
     50 H171         1.8350     1.8950     8.5170 ha         1 SPI       0.114000
     51 H181         2.1410    -0.5260     8.0960 ha         1 SPI       0.116000
     52 H191         0.6370    -1.7090     6.5440 ha         1 SPI       0.115500
     53 HNA         -3.8650    -0.5160    -1.3990 hn         1 SPI       0.348500
     54 HOA         -3.7920    -1.0930    -3.7700 ho         1 SPI       0.441000
@<TRIPOS>BOND
     1     1     2 2   
     2     1     3 2   
     3     1     4 1   
     4     1    12 1   
     5     4     5 ar  
     6     4     9 ar  
     7     5     6 ar  
     8     5    32 1   
     9     6     7 ar  
    10     6    33 1   
    11     7     8 ar  
    12     7    10 1   
    13     8     9 ar  
    14     8    34 1   
    15     9    35 1   
    16    10    11 1   
    17    11    36 1   
    18    11    37 1   
    19    11    38 1   
    20    12    13 1   
    21    12    17 1   
    22    13    14 1   
    23    13    28 1   
    24    13    39 1   
    25    14    15 1   
    26    14    40 1   
    27    14    41 1   
    28    15    16 1   
    29    15    18 1   
    30    16    17 1   
    31    16    42 1   
    32    16    43 1   
    33    17    44 1   
    34    17    45 1   
    35    18    19 2   
    36    18    20 1   
    37    20    21 1   
    38    21    22 1   
    39    21    46 1   
    40    21    47 1   
    41    22    23 ar  
    42    22    27 ar  
    43    23    24 ar  
    44    23    48 1   
    45    24    25 ar  
    46    24    49 1   
    47    25    26 ar  
    48    25    50 1   
    49    26    27 ar  
    50    26    51 1   
    51    27    52 1   
    52    28    29 1   
    53    28    31 2   
    54    29    30 1   
    55    29    53 1   
    56    30    54 1   
@<TRIPOS>SUBSTRUCTURE
     1 SPI         1 TEMP              0 ****  ****    0 ROOT
