@<TRIPOS>MOLECULE
SPJ
   46    45     1     0     0
SMALL
No Charge or Current Charge


@<TRIPOS>ATOM
      1 N1B         -7.2630    -0.9840    -1.0190 n8         1 SPJ      -0.995700
      2 C1C         -7.0000    -0.1620     0.1760 c3         1 SPJ       0.162000
      3 C1A         -8.1550     0.8390     0.3670 c3         1 SPJ      -0.109600
      4 C1D         -5.6240     0.5440     0.0890 c3         1 SPJ      -0.075400
      5 C1E         -4.4200    -0.4230     0.0590 c3         1 SPJ       0.162800
      6 N1F         -3.1540     0.3350     0.0680 n7         1 SPJ      -0.865400
      7 C1G         -1.9320    -0.4890     0.0610 c3         1 SPJ       0.161800
      8 C1H         -0.6810     0.4120     0.0830 c3         1 SPJ      -0.079400
      9 C1I          0.6390    -0.3910     0.0820 c3         1 SPJ      -0.079400
     10 C1J          1.8900     0.5100     0.1040 c3         1 SPJ       0.161800
     11 N1K          3.1120    -0.3140     0.0980 n7         1 SPJ      -0.865400
     12 C1L          4.3780     0.4460     0.1060 c3         1 SPJ       0.162800
     13 C1M          5.5830    -0.5180     0.0850 c3         1 SPJ      -0.075400
     14 C1N          6.9570     0.1910     0.1850 c3         1 SPJ       0.162000
     15 C1P          8.1230    -0.8100     0.3050 c3         1 SPJ      -0.109600
     16 N1O          7.1920     1.0790    -0.9660 n8         1 SPJ      -0.995700
     17 HN1B        -6.6160    -1.7810    -1.0280 hn         1 SPJ       0.390750
     18 HN1A        -8.1840    -1.4260    -0.9210 hn         1 SPJ       0.390750
     19 H1C         -6.9910    -0.8320     1.0480 h1         1 SPJ       0.034700
     20 H1A         -8.2150     1.5380    -0.4770 hc         1 SPJ       0.037367
     21 H1AA        -9.1160     0.3170     0.4530 hc         1 SPJ       0.037367
     22 H1AB        -8.0090     1.4230     1.2840 hc         1 SPJ       0.037367
     23 H1D         -5.5990     1.1870    -0.7990 hc         1 SPJ       0.047950
     24 H1DA        -5.5170     1.2040     0.9590 hc         1 SPJ       0.047950
     25 H1E         -4.4720    -1.0830     0.9360 h1         1 SPJ       0.032200
     26 H1EA        -4.4790    -1.0520    -0.8390 h1         1 SPJ       0.032200
     27 HN1F        -3.1370     0.9350    -0.7660 hn         1 SPJ       0.403000
     28 H1G         -1.9130    -1.1490     0.9390 h1         1 SPJ       0.028450
     29 H1GA        -1.9030    -1.1220    -0.8370 h1         1 SPJ       0.028450
     30 H1H         -0.6980     1.0760    -0.7910 hc         1 SPJ       0.044450
     31 H1HA        -0.7120     1.0510     0.9750 hc         1 SPJ       0.044450
     32 H1I          0.6550    -1.0550     0.9550 hc         1 SPJ       0.044450
     33 H1IA         0.6700    -1.0300    -0.8100 hc         1 SPJ       0.044450
     34 H1J          1.8710     1.1710    -0.7740 h1         1 SPJ       0.028450
     35 H1JA         1.8600     1.1430     1.0020 h1         1 SPJ       0.028450
     36 HN1K         3.0940    -0.9140     0.9300 hn         1 SPJ       0.403000
     37 H1L          4.4270     1.1110    -0.7670 h1         1 SPJ       0.032200
     38 H1LA         4.4380     1.0730     1.0070 h1         1 SPJ       0.032200
     39 H1M          5.4900    -1.2140     0.9280 hc         1 SPJ       0.047950
     40 H1MA         5.5480    -1.1240    -0.8290 hc         1 SPJ       0.047950
     41 H1N          6.9540     0.8150     1.0910 h1         1 SPJ       0.034700
     42 H1P          8.1730    -1.4650    -0.5740 hc         1 SPJ       0.037367
     43 H1PA         9.0810    -0.2850     0.4010 hc         1 SPJ       0.037367
     44 H1PB         7.9960    -1.4400     1.1930 hc         1 SPJ       0.037367
     45 HN1O         8.1280     1.4900    -0.8810 hn         1 SPJ       0.390750
     46 HN1C         7.2580     0.5070    -1.8150 hn         1 SPJ       0.390750
@<TRIPOS>BOND
     1     1     2 1   
     2     1    17 1   
     3     1    18 1   
     4     2     3 1   
     5     2     4 1   
     6     2    19 1   
     7     3    20 1   
     8     3    21 1   
     9     3    22 1   
    10     4     5 1   
    11     4    23 1   
    12     4    24 1   
    13     5     6 1   
    14     5    25 1   
    15     5    26 1   
    16     6     7 1   
    17     6    27 1   
    18     7     8 1   
    19     7    28 1   
    20     7    29 1   
    21     8     9 1   
    22     8    30 1   
    23     8    31 1   
    24     9    10 1   
    25     9    32 1   
    26     9    33 1   
    27    10    11 1   
    28    10    34 1   
    29    10    35 1   
    30    11    12 1   
    31    11    36 1   
    32    12    13 1   
    33    12    37 1   
    34    12    38 1   
    35    13    14 1   
    36    13    39 1   
    37    13    40 1   
    38    14    15 1   
    39    14    16 1   
    40    14    41 1   
    41    15    42 1   
    42    15    43 1   
    43    15    44 1   
    44    16    45 1   
    45    16    46 1   
@<TRIPOS>SUBSTRUCTURE
     1 SPJ         1 TEMP              0 ****  ****    0 ROOT
