@<TRIPOS>MOLECULE
SPJ
   46    45     1     0     0
SMALL
abcg2


@<TRIPOS>ATOM
      1 N1B         -7.0930    -1.0040    -1.0220 n8         1 SPJ      -0.995700
      2 C1C         -6.8870    -0.1950     0.1760 c3         1 SPJ       0.162000
      3 C1A         -8.0370     0.7940     0.2980 c3         1 SPJ      -0.109600
      4 C1D         -5.5550     0.5450     0.0950 c3         1 SPJ      -0.075400
      5 C1E         -4.3320    -0.3600     0.0920 c3         1 SPJ       0.162800
      6 N1F         -3.1080     0.4190     0.1320 n7         1 SPJ      -0.865400
      7 C1G         -1.9130    -0.4030     0.1040 c3         1 SPJ       0.161800
      8 C1H         -0.6510     0.4450     0.1140 c3         1 SPJ      -0.079400
      9 C1I          0.6170    -0.4000     0.1020 c3         1 SPJ      -0.079400
     10 C1J          1.8830     0.4430     0.1040 c3         1 SPJ       0.161800
     11 N1K          3.0710    -0.3880     0.0890 n7         1 SPJ      -0.865400
     12 C1L          4.3040     0.3760     0.1030 c3         1 SPJ       0.162800
     13 C1M          5.5140    -0.5460     0.0940 c3         1 SPJ      -0.075400
     14 C1N          6.8510     0.1830     0.1840 c3         1 SPJ       0.162000
     15 C1P          8.0040    -0.8170     0.2610 c3         1 SPJ      -0.109600
     16 N1O          6.9750     1.1300    -0.9190 n8         1 SPJ      -0.995700
     17 HN1B        -6.4090    -1.7500    -1.0650 hn         1 SPJ       0.390750
     18 HN1A        -7.9900    -1.4710    -0.9580 hn         1 SPJ       0.390750
     19 H1C         -6.8720    -0.8070     1.0920 h1         1 SPJ       0.034700
     20 H1A         -8.0660     1.4600    -0.5670 hc         1 SPJ       0.037367
     21 H1AA        -8.9980     0.2780     0.3570 hc         1 SPJ       0.037367
     22 H1AB        -7.9340     1.4050     1.1950 hc         1 SPJ       0.037367
     23 H1D         -5.5530     1.1720    -0.8040 hc         1 SPJ       0.047950
     24 H1DA        -5.4780     1.2210     0.9520 hc         1 SPJ       0.047950
     25 H1E         -4.3580    -1.0040     0.9780 h1         1 SPJ       0.032200
     26 H1EA        -4.3570    -1.0360    -0.7790 h1         1 SPJ       0.032200
     27 HN1F        -3.0930     1.0380    -0.6710 hn         1 SPJ       0.403000
     28 H1G         -1.9210    -1.0480     0.9890 h1         1 SPJ       0.028450
     29 H1GA        -1.8870    -1.0810    -0.7660 h1         1 SPJ       0.028450
     30 H1H         -0.6530     1.1090    -0.7570 hc         1 SPJ       0.044450
     31 H1HA        -0.6600     1.0910     0.9970 hc         1 SPJ       0.044450
     32 H1I          0.6200    -1.0600     0.9770 hc         1 SPJ       0.044450
     33 H1IA         0.6220    -1.0510    -0.7770 hc         1 SPJ       0.044450
     34 H1J          1.8960     1.0750    -0.7910 h1         1 SPJ       0.028450
     35 H1JA         1.8600     1.1330     0.9640 h1         1 SPJ       0.028450
     36 HN1K         3.0520    -0.9920     0.9030 hn         1 SPJ       0.403000
     37 H1L          4.3250     1.0160    -0.7820 h1         1 SPJ       0.032200
     38 H1LA         4.3710     1.0540     0.9710 h1         1 SPJ       0.032200
     39 H1M          5.4420    -1.2420     0.9370 hc         1 SPJ       0.047950
     40 H1MA         5.4950    -1.1620    -0.8140 hc         1 SPJ       0.047950
     41 H1N          6.8510     0.7720     1.1090 h1         1 SPJ       0.034700
     42 H1P          8.0280    -1.4450    -0.6330 hc         1 SPJ       0.037367
     43 H1PA         8.9630    -0.3010     0.3330 hc         1 SPJ       0.037367
     44 H1PB         7.9120    -1.4730     1.1280 hc         1 SPJ       0.037367
     45 HN1O         7.8730     1.5970    -0.8580 hn         1 SPJ       0.390750
     46 HN1C         7.0020     0.6140    -1.7930 hn         1 SPJ       0.390750
@<TRIPOS>BOND
     1     1     2 1   
     2     1    17 1   
     3     1    18 1   
     4     2     3 1   
     5     2     4 1   
     6     2    19 1   
     7     3    20 1   
     8     3    21 1   
     9     3    22 1   
    10     4     5 1   
    11     4    23 1   
    12     4    24 1   
    13     5     6 1   
    14     5    25 1   
    15     5    26 1   
    16     6     7 1   
    17     6    27 1   
    18     7     8 1   
    19     7    28 1   
    20     7    29 1   
    21     8     9 1   
    22     8    30 1   
    23     8    31 1   
    24     9    10 1   
    25     9    32 1   
    26     9    33 1   
    27    10    11 1   
    28    10    34 1   
    29    10    35 1   
    30    11    12 1   
    31    11    36 1   
    32    12    13 1   
    33    12    37 1   
    34    12    38 1   
    35    13    14 1   
    36    13    39 1   
    37    13    40 1   
    38    14    15 1   
    39    14    16 1   
    40    14    41 1   
    41    15    42 1   
    42    15    43 1   
    43    15    44 1   
    44    16    45 1   
    45    16    46 1   
@<TRIPOS>SUBSTRUCTURE
     1 SPJ         1 TEMP              0 ****  ****    0 ROOT
