@<TRIPOS>MOLECULE
SPK
   44    43     1     0     0
SMALL
No Charge or Current Charge


@<TRIPOS>ATOM
      1 N1          -8.2160     0.3770     0.0020 nz         1 SPK      -0.973500
      2 C2          -7.0250    -0.5520     0.0090 c3         1 SPK       0.105600
      3 C3          -5.7140     0.2520    -0.0000 c3         1 SPK      -0.139400
      4 C4          -4.4710    -0.6540     0.0070 c3         1 SPK       0.100100
      5 N5          -3.1940     0.1820    -0.0030 ny         1 SPK      -0.820000
      6 C6          -1.8770    -0.5930     0.0030 c3         1 SPK       0.096600
      7 C7          -0.6730     0.3640    -0.0070 c3         1 SPK      -0.101400
      8 C8           0.6790    -0.3840    -0.0020 c3         1 SPK      -0.101400
      9 C9           1.8830     0.5730    -0.0120 c3         1 SPK       0.096600
     10 N10          3.2000    -0.2020    -0.0070 ny         1 SPK      -0.820000
     11 C11          4.4770     0.6340    -0.0160 c3         1 SPK       0.100100
     12 C12          5.7200    -0.2720    -0.0090 c3         1 SPK      -0.139400
     13 C13          7.0310     0.5320    -0.0170 c3         1 SPK       0.105600
     14 N14          8.2220    -0.3970    -0.0100 nz         1 SPK      -0.973500
     15 H1A         -8.2580     0.9930    -0.8260 hn         1 SPK       0.536000
     16 H1B         -8.2560     1.0090     0.8170 hn         1 SPK       0.536000
     17 H1C         -9.1220    -0.1200     0.0080 hn         1 SPK       0.536000
     18 H2A         -7.0610    -1.1880     0.9030 hx         1 SPK       0.128200
     19 H2B         -7.0630    -1.2050    -0.8720 hx         1 SPK       0.128200
     20 H3A         -5.6900     0.8920    -0.8910 hc         1 SPK       0.093200
     21 H3B         -5.6870     0.9100     0.8780 hc         1 SPK       0.093200
     22 H4A         -4.4810    -1.2890     0.9000 hx         1 SPK       0.123200
     23 H4B         -4.4830    -1.3060    -0.8740 hx         1 SPK       0.123200
     24 H5A         -3.2100     0.8300    -0.8220 hn         1 SPK       0.515000
     25 H5B         -3.2080     0.8450     0.8040 hn         1 SPK       0.515000
     26 H6A         -1.8350    -1.2260     0.8960 hx         1 SPK       0.117700
     27 H6B         -1.8370    -1.2430    -0.8780 hx         1 SPK       0.117700
     28 H7A         -0.7280     1.0050    -0.8970 hc         1 SPK       0.084700
     29 H7B         -0.7260     1.0220     0.8700 hc         1 SPK       0.084700
     30 H8A          0.7340    -1.0250     0.8870 hc         1 SPK       0.084700
     31 H8B          0.7320    -1.0420    -0.8790 hc         1 SPK       0.084700
     32 H9A          1.8410     1.2060    -0.9050 hx         1 SPK       0.117700
     33 H9B          1.8430     1.2230     0.8680 hx         1 SPK       0.117700
     34 H101         3.2150    -0.8500     0.8120 hn         1 SPK       0.515000
     35 H102         3.2140    -0.8650    -0.8140 hn         1 SPK       0.515000
     36 H111         4.4870     1.2700    -0.9080 hx         1 SPK       0.123200
     37 H112         4.4890     1.2860     0.8650 hx         1 SPK       0.123200
     38 H121         5.6950    -0.9130     0.8810 hc         1 SPK       0.093200
     39 H122         5.6940    -0.9290    -0.8870 hc         1 SPK       0.093200
     40 H131         7.0670     1.1690    -0.9110 hx         1 SPK       0.128200
     41 H132         7.0690     1.1850     0.8640 hx         1 SPK       0.128200
     42 H141         8.2630    -1.0140     0.8170 hn         1 SPK       0.536000
     43 H142         8.2620    -1.0280    -0.8260 hn         1 SPK       0.536000
     44 H143         9.1280     0.1000    -0.0160 hn         1 SPK       0.536000
@<TRIPOS>BOND
     1     1     2 1   
     2     1    15 1   
     3     1    16 1   
     4     1    17 1   
     5     2     3 1   
     6     2    18 1   
     7     2    19 1   
     8     3     4 1   
     9     3    20 1   
    10     3    21 1   
    11     4     5 1   
    12     4    22 1   
    13     4    23 1   
    14     5     6 1   
    15     5    24 1   
    16     5    25 1   
    17     6     7 1   
    18     6    26 1   
    19     6    27 1   
    20     7     8 1   
    21     7    28 1   
    22     7    29 1   
    23     8     9 1   
    24     8    30 1   
    25     8    31 1   
    26     9    10 1   
    27     9    32 1   
    28     9    33 1   
    29    10    11 1   
    30    10    34 1   
    31    10    35 1   
    32    11    12 1   
    33    11    36 1   
    34    11    37 1   
    35    12    13 1   
    36    12    38 1   
    37    12    39 1   
    38    13    14 1   
    39    13    40 1   
    40    13    41 1   
    41    14    42 1   
    42    14    43 1   
    43    14    44 1   
@<TRIPOS>SUBSTRUCTURE
     1 SPK         1 TEMP              0 ****  ****    0 ROOT
