@<TRIPOS>MOLECULE
SPK
   44    43     1     0     0
SMALL
bcc


@<TRIPOS>ATOM
      1 N1          -8.0500     0.2720    -0.0060 nz         1 SPK      -0.836100
      2 C2          -6.8140    -0.5470     0.0090 c3         1 SPK       0.133800
      3 C3          -5.5830     0.3400     0.0110 c3         1 SPK      -0.139400
      4 C4          -4.3410    -0.5310     0.0260 c3         1 SPK       0.128300
      5 N5          -3.1100     0.3010     0.0090 ny         1 SPK      -0.766000
      6 C6          -1.8520    -0.4960    -0.0030 c3         1 SPK       0.124800
      7 C7          -0.6350     0.4070    -0.0070 c3         1 SPK      -0.101400
      8 C8           0.6410    -0.4270    -0.0110 c3         1 SPK      -0.101400
      9 C9           1.8580     0.4770    -0.0130 c3         1 SPK       0.124800
     10 N10          3.1160    -0.3210    -0.0210 ny         1 SPK      -0.766000
     11 C11          4.3470     0.5120    -0.0400 c3         1 SPK       0.128300
     12 C12          5.5890    -0.3590    -0.0150 c3         1 SPK      -0.139400
     13 C13          6.8200     0.5270    -0.0150 c3         1 SPK       0.133800
     14 N14          8.0560    -0.2910     0.0090 nz         1 SPK      -0.836100
     15 H1A         -8.1000     0.8760    -0.8260 hn         1 SPK       0.480800
     16 H1B         -8.1260     0.8680     0.8180 hn         1 SPK       0.480800
     17 H1C         -8.8830    -0.3170    -0.0220 hn         1 SPK       0.480800
     18 H2A         -6.8600    -1.1730     0.8970 hx         1 SPK       0.128200
     19 H2B         -6.8470    -1.1860    -0.8710 hx         1 SPK       0.128200
     20 H3A         -5.5820     0.9740    -0.8790 hc         1 SPK       0.093200
     21 H3B         -5.5940     0.9910     0.8870 hc         1 SPK       0.093200
     22 H4A         -4.2950    -1.1480     0.9230 hx         1 SPK       0.123200
     23 H4B         -4.2960    -1.1800    -0.8460 hx         1 SPK       0.123200
     24 H5A         -3.1270     0.9160    -0.8070 hn         1 SPK       0.459800
     25 H5B         -3.1080     0.9220     0.8210 hn         1 SPK       0.459800
     26 H6A         -1.8750    -1.1340     0.8790 hx         1 SPK       0.117700
     27 H6B         -1.8870    -1.1260    -0.8910 hx         1 SPK       0.117700
     28 H7A         -0.6570     1.0540    -0.8880 hc         1 SPK       0.084700
     29 H7B         -0.6520     1.0550     0.8740 hc         1 SPK       0.084700
     30 H8A          0.6620    -1.0750     0.8690 hc         1 SPK       0.084700
     31 H8B          0.6580    -1.0730    -0.8920 hc         1 SPK       0.084700
     32 H9A          1.8830     1.1140    -0.8950 hx         1 SPK       0.117700
     33 H9B          1.8910     1.1070     0.8740 hx         1 SPK       0.117700
     34 H101         3.1320    -0.9330     0.7970 hn         1 SPK       0.459800
     35 H102         3.1150    -0.9440    -0.8310 hn         1 SPK       0.459800
     36 H111         4.3030     1.1230    -0.9390 hx         1 SPK       0.123200
     37 H112         4.3000     1.1650     0.8300 hx         1 SPK       0.123200
     38 H121         5.5850    -0.9890     0.8770 hc         1 SPK       0.093200
     39 H122         5.6030    -1.0160    -0.8890 hc         1 SPK       0.093200
     40 H131         6.8700     1.1480    -0.9060 hx         1 SPK       0.128200
     41 H132         6.8500     1.1710     0.8610 hx         1 SPK       0.128200
     42 H141         8.1030    -0.8920     0.8320 hn         1 SPK       0.480800
     43 H142         8.1350    -0.8910    -0.8110 hn         1 SPK       0.480800
     44 H143         8.8890     0.2970     0.0260 hn         1 SPK       0.480800
@<TRIPOS>BOND
     1     1     2 1   
     2     1    15 1   
     3     1    16 1   
     4     1    17 1   
     5     2     3 1   
     6     2    18 1   
     7     2    19 1   
     8     3     4 1   
     9     3    20 1   
    10     3    21 1   
    11     4     5 1   
    12     4    22 1   
    13     4    23 1   
    14     5     6 1   
    15     5    24 1   
    16     5    25 1   
    17     6     7 1   
    18     6    26 1   
    19     6    27 1   
    20     7     8 1   
    21     7    28 1   
    22     7    29 1   
    23     8     9 1   
    24     8    30 1   
    25     8    31 1   
    26     9    10 1   
    27     9    32 1   
    28     9    33 1   
    29    10    11 1   
    30    10    34 1   
    31    10    35 1   
    32    11    12 1   
    33    11    36 1   
    34    11    37 1   
    35    12    13 1   
    36    12    38 1   
    37    12    39 1   
    38    13    14 1   
    39    13    40 1   
    40    13    41 1   
    41    14    42 1   
    42    14    43 1   
    43    14    44 1   
@<TRIPOS>SUBSTRUCTURE
     1 SPK         1 TEMP              0 ****  ****    0 ROOT
