@<TRIPOS>MOLECULE
SPL
   81    80     1     0     0
SMALL
No Charge or Current Charge


@<TRIPOS>ATOM
      1 C1          -3.0480     1.6370    -6.2480 c3         1 SPL       0.152600
      2 O1          -2.9860     0.4850    -7.1100 oh         1 SPL      -0.669000
      3 C2          -2.8040     1.2410    -4.7650 c3         1 SPL       0.082700
      4 N2          -1.5230     0.5180    -4.6370 ns         1 SPL      -0.505900
      5 C3          -3.9850     0.4270    -4.1520 c3         1 SPL       0.193500
      6 O3          -5.1710     1.2240    -4.1010 oh         1 SPL      -0.646000
      7 C4          -3.7070    -0.0430    -2.7420 c2         1 SPL      -0.260200
      8 C5          -3.8410    -1.3080    -2.3030 c2         1 SPL      -0.199200
      9 C6          -3.5210    -1.8400    -0.9140 c3         1 SPL      -0.044200
     10 C7          -2.7710    -0.8540     0.0130 c3         1 SPL      -0.072400
     11 C8          -2.4050    -1.4700     1.3810 c3         1 SPL      -0.074400
     12 C9          -1.6730    -0.4800     2.3140 c3         1 SPL      -0.074400
     13 C10         -1.3160    -1.0940     3.6850 c3         1 SPL      -0.074400
     14 C11         -0.6040    -0.0990     4.6270 c3         1 SPL      -0.074400
     15 C12         -0.2580    -0.7110     6.0020 c3         1 SPL      -0.074400
     16 C13          0.4350     0.2890     6.9530 c3         1 SPL      -0.074400
     17 C14          0.7720    -0.3230     8.3310 c3         1 SPL      -0.074400
     18 C15          1.4520     0.6800     9.2880 c3         1 SPL      -0.074400
     19 C16          1.7810     0.0690    10.6680 c3         1 SPL      -0.075400
     20 C17          2.4550     1.0730    11.6290 c3         1 SPL      -0.074400
     21 C18          2.7800     0.4640    13.0070 c3         1 SPL      -0.088100
     22 C19         -0.5910     0.7190    -3.6440 c          1 SPL       0.601100
     23 O19         -0.7300     1.5650    -2.7720 o          1 SPL      -0.607100
     24 C20          0.6180    -0.2210    -3.6940 c3         1 SPL      -0.157400
     25 C21          1.8920     0.5160    -4.1710 c3         1 SPL      -0.066400
     26 C22          3.1340    -0.4010    -4.2270 c3         1 SPL      -0.076400
     27 C23          4.4070     0.3330    -4.7000 c3         1 SPL      -0.074400
     28 C24          5.6500    -0.5840    -4.7500 c3         1 SPL      -0.075400
     29 C25          6.9250     0.1500    -5.2200 c3         1 SPL      -0.075400
     30 C26          8.1650    -0.7630    -5.2660 c3         1 SPL      -0.088100
     31 H11         -4.0210     2.1370    -6.3400 h1         1 SPL       0.033700
     32 H12         -2.2790     2.3650    -6.5430 h1         1 SPL       0.033700
     33 HO1         -3.1470     0.8040    -8.0260 ho         1 SPL       0.448000
     34 H2          -2.7270     2.1760    -4.1960 h1         1 SPL       0.085700
     35 HN2         -1.3160    -0.1960    -5.3240 hn         1 SPL       0.322500
     36 H3          -4.1500    -0.4540    -4.7910 h1         1 SPL       0.091700
     37 HO3         -5.8140     0.7190    -3.5580 ho         1 SPL       0.440000
     38 H4          -3.3470     0.7490    -2.0850 ha         1 SPL       0.177000
     39 H5          -4.1940    -2.0830    -2.9870 ha         1 SPL       0.171000
     40 H61         -2.9100    -2.7470    -1.0160 hc         1 SPL       0.044700
     41 H62         -4.4500    -2.1530    -0.4220 hc         1 SPL       0.044700
     42 H71         -3.3950     0.0320     0.1780 hc         1 SPL       0.041700
     43 H72         -1.8520    -0.5180    -0.4860 hc         1 SPL       0.041700
     44 H81         -1.7700    -2.3510     1.2230 hc         1 SPL       0.037200
     45 H82         -3.3210    -1.8190     1.8750 hc         1 SPL       0.037200
     46 H91         -2.3060     0.4030     2.4690 hc         1 SPL       0.038200
     47 H92         -0.7550    -0.1330     1.8230 hc         1 SPL       0.038200
     48 H101        -0.6720    -1.9690     3.5310 hc         1 SPL       0.037200
     49 H102        -2.2330    -1.4530     4.1680 hc         1 SPL       0.037200
     50 H111        -1.2470     0.7780     4.7760 hc         1 SPL       0.037200
     51 H112         0.3180     0.2570     4.1480 hc         1 SPL       0.037200
     52 H121         0.3950    -1.5810     5.8550 hc         1 SPL       0.036700
     53 H122        -1.1780    -1.0770     6.4740 hc         1 SPL       0.036700
     54 H131        -0.2160     1.1600     7.0950 hc         1 SPL       0.037200
     55 H132         1.3590     0.6520     6.4840 hc         1 SPL       0.037200
     56 H141         1.4300    -1.1890     8.1890 hc         1 SPL       0.036700
     57 H142        -0.1510    -0.6930     8.7950 hc         1 SPL       0.036700
     58 H151         0.7960     1.5490     9.4260 hc         1 SPL       0.036700
     59 H152         2.3780     1.0480     8.8270 hc         1 SPL       0.036700
     60 H161         2.4400    -0.7970    10.5310 hc         1 SPL       0.036700
     61 H162         0.8550    -0.3020    11.1270 hc         1 SPL       0.036700
     62 H171         1.7980     1.9410    11.7690 hc         1 SPL       0.036700
     63 H172         3.3830     1.4440    11.1760 hc         1 SPL       0.036700
     64 H181         3.2550     1.2120    13.6530 hc         1 SPL       0.031367
     65 H182         1.8650     0.1150    13.5020 hc         1 SPL       0.031367
     66 H183         3.4650    -0.3860    12.9040 hc         1 SPL       0.031367
     67 H201         0.4190    -1.0520    -4.3810 hc         1 SPL       0.055700
     68 H202         0.7990    -0.6100    -2.6850 hc         1 SPL       0.055700
     69 H211         2.0960     1.3580    -3.4970 hc         1 SPL       0.054200
     70 H212         1.7100     0.9410    -5.1670 hc         1 SPL       0.054200
     71 H221         2.9310    -1.2420    -4.9020 hc         1 SPL       0.036200
     72 H222         3.3120    -0.8260    -3.2310 hc         1 SPL       0.036200
     73 H231         4.6090     1.1750    -4.0270 hc         1 SPL       0.039700
     74 H232         4.2310     0.7550    -5.6980 hc         1 SPL       0.039700
     75 H241         5.4500    -1.4260    -5.4250 hc         1 SPL       0.036200
     76 H242         5.8250    -1.0070    -3.7530 hc         1 SPL       0.036200
     77 H251         7.1280     0.9930    -4.5470 hc         1 SPL       0.037200
     78 H252         6.7550     0.5720    -6.2190 hc         1 SPL       0.037200
     79 H261         9.0430    -0.2000    -5.6040 hc         1 SPL       0.031367
     80 H262         8.3830    -1.1730    -4.2720 hc         1 SPL       0.031367
     81 H263         8.0070    -1.5980    -5.9590 hc         1 SPL       0.031367
@<TRIPOS>BOND
     1     1     2 1   
     2     1     3 1   
     3     1    31 1   
     4     1    32 1   
     5     2    33 1   
     6     3     4 1   
     7     3     5 1   
     8     3    34 1   
     9     4    22 1   
    10     4    35 1   
    11     5     6 1   
    12     5     7 1   
    13     5    36 1   
    14     6    37 1   
    15     7     8 2   
    16     7    38 1   
    17     8     9 1   
    18     8    39 1   
    19     9    10 1   
    20     9    40 1   
    21     9    41 1   
    22    10    11 1   
    23    10    42 1   
    24    10    43 1   
    25    11    12 1   
    26    11    44 1   
    27    11    45 1   
    28    12    13 1   
    29    12    46 1   
    30    12    47 1   
    31    13    14 1   
    32    13    48 1   
    33    13    49 1   
    34    14    15 1   
    35    14    50 1   
    36    14    51 1   
    37    15    16 1   
    38    15    52 1   
    39    15    53 1   
    40    16    17 1   
    41    16    54 1   
    42    16    55 1   
    43    17    18 1   
    44    17    56 1   
    45    17    57 1   
    46    18    19 1   
    47    18    58 1   
    48    18    59 1   
    49    19    20 1   
    50    19    60 1   
    51    19    61 1   
    52    20    21 1   
    53    20    62 1   
    54    20    63 1   
    55    21    64 1   
    56    21    65 1   
    57    21    66 1   
    58    22    23 2   
    59    22    24 1   
    60    24    25 1   
    61    24    67 1   
    62    24    68 1   
    63    25    26 1   
    64    25    69 1   
    65    25    70 1   
    66    26    27 1   
    67    26    71 1   
    68    26    72 1   
    69    27    28 1   
    70    27    73 1   
    71    27    74 1   
    72    28    29 1   
    73    28    75 1   
    74    28    76 1   
    75    29    30 1   
    76    29    77 1   
    77    29    78 1   
    78    30    79 1   
    79    30    80 1   
    80    30    81 1   
@<TRIPOS>SUBSTRUCTURE
     1 SPL         1 TEMP              0 ****  ****    0 ROOT
