@<TRIPOS>MOLECULE
SPL
   81    80     1     0     0
SMALL
abcg2


@<TRIPOS>ATOM
      1 C1          -3.3620     1.5910    -5.9870 c3         1 SPL       0.152600
      2 O1          -3.6480     0.6090    -6.9580 oh         1 SPL      -0.669000
      3 C2          -2.7150     0.9150    -4.7890 c3         1 SPL       0.082700
      4 N2          -1.4630     0.3020    -5.1750 ns         1 SPL      -0.505900
      5 C3          -3.6390    -0.1340    -4.1210 c3         1 SPL       0.193500
      6 O3          -4.9030     0.4110    -3.8470 oh         1 SPL      -0.646000
      7 C4          -2.9820    -0.7430    -2.9150 c2         1 SPL      -0.260200
      8 C5          -3.5270    -0.8580    -1.7080 c2         1 SPL      -0.199200
      9 C6          -2.8360    -1.4630    -0.5270 c3         1 SPL      -0.044200
     10 C7          -2.6950    -0.4850     0.6390 c3         1 SPL      -0.072400
     11 C8          -2.0020    -1.1090     1.8440 c3         1 SPL      -0.074400
     12 C9          -1.8730    -0.1600     3.0280 c3         1 SPL      -0.074400
     13 C10         -1.1570    -0.7890     4.2170 c3         1 SPL      -0.074400
     14 C11         -1.0270     0.1450     5.4130 c3         1 SPL      -0.074400
     15 C12         -0.2980    -0.4920     6.5900 c3         1 SPL      -0.074400
     16 C13         -0.1620     0.4320     7.7930 c3         1 SPL      -0.074400
     17 C14          0.5760    -0.2130     8.9600 c3         1 SPL      -0.074400
     18 C15          0.7180     0.7040    10.1680 c3         1 SPL      -0.074400
     19 C16          1.4600     0.0540    11.3300 c3         1 SPL      -0.075400
     20 C17          1.6050     0.9660    12.5410 c3         1 SPL      -0.074400
     21 C18          2.3460     0.3010    13.6940 c3         1 SPL      -0.088100
     22 C19         -0.2680     0.5690    -4.6120 c          1 SPL       0.601100
     23 O19         -0.1110     1.4160    -3.7440 o          1 SPL      -0.607100
     24 C20          0.8690    -0.2990    -5.1060 c3         1 SPL      -0.157400
     25 C21          2.2030     0.4310    -5.1910 c3         1 SPL      -0.066400
     26 C22          3.3380    -0.5000    -5.5990 c3         1 SPL      -0.076400
     27 C23          4.6840     0.2080    -5.6970 c3         1 SPL      -0.074400
     28 C24          5.8240    -0.7260    -6.0850 c3         1 SPL      -0.075400
     29 C25          7.1720    -0.0230    -6.1840 c3         1 SPL      -0.075400
     30 C26          8.3060    -0.9660    -6.5640 c3         1 SPL      -0.088100
     31 H11         -4.2640     2.1200    -5.6630 h1         1 SPL       0.033700
     32 H12         -2.6650     2.3470    -6.3700 h1         1 SPL       0.033700
     33 HO1         -4.0420     1.0400    -7.7220 ho         1 SPL       0.448000
     34 H2          -2.4890     1.6930    -4.0560 h1         1 SPL       0.085700
     35 HN2         -1.5000    -0.3890    -5.9070 hn         1 SPL       0.322500
     36 H3          -3.8140    -0.9320    -4.8520 h1         1 SPL       0.091700
     37 HO3         -4.8030     1.0830    -3.1630 ho         1 SPL       0.440000
     38 H4          -1.9810    -1.1330    -3.0730 ha         1 SPL       0.177000
     39 H5          -4.5360    -0.4970    -1.5290 ha         1 SPL       0.171000
     40 H61         -1.8480    -1.8310    -0.8210 hc         1 SPL       0.044700
     41 H62         -3.4030    -2.3360    -0.1830 hc         1 SPL       0.044700
     42 H71         -3.6860    -0.1240     0.9330 hc         1 SPL       0.041700
     43 H72         -2.1340     0.3950     0.3080 hc         1 SPL       0.041700
     44 H81         -1.0060    -1.4540     1.5470 hc         1 SPL       0.037200
     45 H82         -2.5530    -2.0040     2.1550 hc         1 SPL       0.037200
     46 H91         -2.8700     0.1720     3.3390 hc         1 SPL       0.038200
     47 H92         -1.3360     0.7430     2.7170 hc         1 SPL       0.038200
     48 H101        -0.1590    -1.1160     3.9040 hc         1 SPL       0.037200
     49 H102        -1.6900    -1.6970     4.5210 hc         1 SPL       0.037200
     50 H111        -2.0240     0.4660     5.7350 hc         1 SPL       0.037200
     51 H112        -0.4990     1.0560     5.1100 hc         1 SPL       0.037200
     52 H121         0.6990    -0.8130     6.2650 hc         1 SPL       0.036700
     53 H122        -0.8250    -1.4050     6.8910 hc         1 SPL       0.036700
     54 H131        -1.1570     0.7490     8.1230 hc         1 SPL       0.037200
     55 H132         0.3630     1.3460     7.4930 hc         1 SPL       0.037200
     56 H141         1.5700    -0.5310     8.6280 hc         1 SPL       0.036700
     57 H142         0.0510    -1.1270     9.2590 hc         1 SPL       0.036700
     58 H151        -0.2760     1.0210    10.5040 hc         1 SPL       0.036700
     59 H152         1.2420     1.6190     9.8700 hc         1 SPL       0.036700
     60 H161         2.4530    -0.2630    10.9930 hc         1 SPL       0.036700
     61 H162         0.9360    -0.8620    11.6260 hc         1 SPL       0.036700
     62 H171         0.6130     1.2820    12.8780 hc         1 SPL       0.036700
     63 H172         2.1300     1.8800    12.2450 hc         1 SPL       0.036700
     64 H181         2.4290     0.9630    14.5560 hc         1 SPL       0.031367
     65 H182         1.8300    -0.6040    14.0190 hc         1 SPL       0.031367
     66 H183         3.3570     0.0130    13.3980 hc         1 SPL       0.031367
     67 H201         0.6210    -0.7470    -6.0720 hc         1 SPL       0.055700
     68 H202         0.9560    -1.1340    -4.4010 hc         1 SPL       0.055700
     69 H211         2.4350     0.8860    -4.2260 hc         1 SPL       0.054200
     70 H212         2.1260     1.2520    -5.9120 hc         1 SPL       0.054200
     71 H221         3.1010    -0.9660    -6.5610 hc         1 SPL       0.036200
     72 H222         3.4110    -1.3190    -4.8750 hc         1 SPL       0.036200
     73 H231         4.9160     0.6820    -4.7380 hc         1 SPL       0.039700
     74 H232         4.6140     1.0200    -6.4290 hc         1 SPL       0.039700
     75 H241         5.5920    -1.2020    -7.0440 hc         1 SPL       0.036200
     76 H242         5.8930    -1.5380    -5.3530 hc         1 SPL       0.036200
     77 H251         7.4010     0.4550    -5.2260 hc         1 SPL       0.037200
     78 H252         7.1060     0.7860    -6.9180 hc         1 SPL       0.037200
     79 H261         9.2600    -0.4410    -6.6250 hc         1 SPL       0.031367
     80 H262         8.4150    -1.7670    -5.8310 hc         1 SPL       0.031367
     81 H263         8.1230    -1.4320    -7.5340 hc         1 SPL       0.031367
@<TRIPOS>BOND
     1     1     2 1   
     2     1     3 1   
     3     1    31 1   
     4     1    32 1   
     5     2    33 1   
     6     3     4 1   
     7     3     5 1   
     8     3    34 1   
     9     4    22 1   
    10     4    35 1   
    11     5     6 1   
    12     5     7 1   
    13     5    36 1   
    14     6    37 1   
    15     7     8 2   
    16     7    38 1   
    17     8     9 1   
    18     8    39 1   
    19     9    10 1   
    20     9    40 1   
    21     9    41 1   
    22    10    11 1   
    23    10    42 1   
    24    10    43 1   
    25    11    12 1   
    26    11    44 1   
    27    11    45 1   
    28    12    13 1   
    29    12    46 1   
    30    12    47 1   
    31    13    14 1   
    32    13    48 1   
    33    13    49 1   
    34    14    15 1   
    35    14    50 1   
    36    14    51 1   
    37    15    16 1   
    38    15    52 1   
    39    15    53 1   
    40    16    17 1   
    41    16    54 1   
    42    16    55 1   
    43    17    18 1   
    44    17    56 1   
    45    17    57 1   
    46    18    19 1   
    47    18    58 1   
    48    18    59 1   
    49    19    20 1   
    50    19    60 1   
    51    19    61 1   
    52    20    21 1   
    53    20    62 1   
    54    20    63 1   
    55    21    64 1   
    56    21    65 1   
    57    21    66 1   
    58    22    23 2   
    59    22    24 1   
    60    24    25 1   
    61    24    67 1   
    62    24    68 1   
    63    25    26 1   
    64    25    69 1   
    65    25    70 1   
    66    26    27 1   
    67    26    71 1   
    68    26    72 1   
    69    27    28 1   
    70    27    73 1   
    71    27    74 1   
    72    28    29 1   
    73    28    75 1   
    74    28    76 1   
    75    29    30 1   
    76    29    77 1   
    77    29    78 1   
    78    30    79 1   
    79    30    80 1   
    80    30    81 1   
@<TRIPOS>SUBSTRUCTURE
     1 SPL         1 TEMP              0 ****  ****    0 ROOT
