@<TRIPOS>MOLECULE
SPN
  113   112     1     0     0
SMALL
abcg2


@<TRIPOS>ATOM
      1 CMA          1.6980    -1.1630    16.0630 c3         1 SPN       0.151900
      2 O1           1.1090    -0.6570    14.8880 os         1 SPN      -0.462000
      3 CM1          1.2360     1.7440    15.2070 c3         1 SPN      -0.112600
      4 CM2          3.1700     0.4910    14.2030 c3         1 SPN      -0.112600
      5 C1           1.6450     0.5420    14.3620 c3         1 SPN       0.085000
      6 C2           1.0730     0.6540    12.9440 c          1 SPN       0.586100
      7 O2           0.8680     1.7360    12.4490 o          1 SPN      -0.512100
      8 C3           0.8330    -0.6290    12.1770 c3         1 SPN      -0.133200
      9 C4           0.6390    -0.3990    10.7140 c2         1 SPN      -0.212200
     10 C5          -0.4490    -0.6620     9.9880 c2         1 SPN      -0.101400
     11 CM3         -1.7300    -1.2200    10.5330 c3         1 SPN      -0.055900
     12 C6          -0.4440    -0.4060     8.5030 c3         1 SPN      -0.039200
     13 C7          -0.2350    -1.6860     7.6770 c3         1 SPN      -0.036200
     14 C8          -0.3690    -1.4200     6.2100 c2         1 SPN      -0.221200
     15 C9           0.6030    -1.3090     5.3000 c2         1 SPN      -0.112400
     16 CM4          2.0650    -1.4720     5.5970 c3         1 SPN      -0.054900
     17 C10          0.2680    -0.9850     3.8680 c3         1 SPN      -0.038200
     18 C11          0.7120     0.4260     3.4500 c3         1 SPN      -0.036200
     19 C12          0.4180     0.6930     2.0070 c2         1 SPN      -0.221200
     20 C13         -0.4790     1.5370     1.4900 c2         1 SPN      -0.110400
     21 CM5         -1.3710     2.4310     2.3030 c3         1 SPN      -0.054900
     22 C14         -0.6620     1.6370    -0.0020 c3         1 SPN      -0.040200
     23 C15         -1.9570     0.9910    -0.4990 c3         1 SPN      -0.074400
     24 C16         -2.1490     1.1440    -2.0030 c3         1 SPN      -0.073400
     25 C17         -3.4150     0.4450    -2.5030 c3         1 SPN      -0.040200
     26 C18         -3.6700     0.6220    -3.9770 c2         1 SPN      -0.112400
     27 CM6         -4.0080     2.0230    -4.4000 c3         1 SPN      -0.053900
     28 C19         -3.5900    -0.4190    -4.8090 c2         1 SPN      -0.219200
     29 C20         -3.7990    -0.4370    -6.2920 c3         1 SPN      -0.038200
     30 C21         -2.4950    -0.6720    -7.0590 c3         1 SPN      -0.069400
     31 C22         -2.6420    -0.6100    -8.5820 c3         1 SPN      -0.059700
     32 CM7         -3.6110    -1.6710    -9.0960 c3         1 SPN      -0.087100
     33 C23         -1.2680    -0.7280    -9.2490 c3         1 SPN      -0.070400
     34 C24         -1.2730    -0.3860   -10.7410 c3         1 SPN      -0.039200
     35 C25          0.0800    -0.5060   -11.3710 c2         1 SPN      -0.219200
     36 C26          0.8730     0.4810   -11.7980 c2         1 SPN      -0.113400
     37 CM8          0.5330     1.9410   -11.6970 c3         1 SPN      -0.054900
     38 C27          2.1930     0.1730   -12.4530 c3         1 SPN      -0.037200
     39 C28          2.2230     0.5360   -13.9470 c3         1 SPN      -0.036200
     40 C29          3.5690     0.2860   -14.5500 c2         1 SPN      -0.224200
     41 C30          3.9240    -0.6890   -15.3920 c2         1 SPN      -0.112400
     42 CM9          5.3380    -0.8100   -15.8810 c3         1 SPN      -0.055900
     43 CMB          2.9950    -1.7410   -15.9220 c3         1 SPN      -0.055900
     44 HMA1         1.7170    -0.4330    16.8790 h1         1 SPN       0.030700
     45 HMA2         1.0900    -2.0070    16.3830 h1         1 SPN       0.030700
     46 HMA3         2.7190    -1.5210    15.9020 h1         1 SPN       0.030700
     47 HM11         0.1520     1.8460    15.2570 hc         1 SPN       0.048200
     48 HM12         1.6120     1.6400    16.2260 hc         1 SPN       0.048200
     49 HM13         1.6480     2.6680    14.8050 hc         1 SPN       0.048200
     50 HM21         3.4940    -0.4060    13.6720 hc         1 SPN       0.048200
     51 HM22         3.5200     1.3600    13.6460 hc         1 SPN       0.048200
     52 HM23         3.6710     0.5070    15.1720 hc         1 SPN       0.048200
     53 H31          1.6760    -1.3070    12.3490 hc         1 SPN       0.075700
     54 H32         -0.0230    -1.1290    12.6360 hc         1 SPN       0.075700
     55 H4           1.4990     0.0210    10.1980 ha         1 SPN       0.171000
     56 HM31        -1.6810    -1.4800    11.5880 hc         1 SPN       0.039700
     57 HM32        -2.5380    -0.4960    10.4060 hc         1 SPN       0.039700
     58 HM33        -2.0320    -2.1170     9.9880 hc         1 SPN       0.039700
     59 H61         -1.3920     0.0560     8.2080 hc         1 SPN       0.048200
     60 H62          0.3450     0.3050     8.2450 hc         1 SPN       0.048200
     61 H71          0.7400    -2.1070     7.9260 hc         1 SPN       0.044700
     62 H72         -0.9770    -2.4350     7.9690 hc         1 SPN       0.044700
     63 H8          -1.3900    -1.2670     5.8670 ha         1 SPN       0.165000
     64 HM41         2.2690    -1.7340     6.6320 hc         1 SPN       0.039033
     65 HM42         2.4990    -2.2480     4.9620 hc         1 SPN       0.039033
     66 HM43         2.6160    -0.5540     5.3790 hc         1 SPN       0.039033
     67 H101         0.7440    -1.7160     3.2040 hc         1 SPN       0.044700
     68 H102        -0.8100    -1.0730     3.7080 hc         1 SPN       0.044700
     69 H111         0.2290     1.1550     4.1030 hc         1 SPN       0.046200
     70 H112         1.7890     0.5280     3.6160 hc         1 SPN       0.046200
     71 H12          1.0030     0.0990     1.3080 ha         1 SPN       0.164000
     72 HM51        -1.2230     2.3300     3.3760 hc         1 SPN       0.039033
     73 HM52        -1.2010     3.4780     2.0420 hc         1 SPN       0.039033
     74 HM53        -2.4250     2.2290     2.0990 hc         1 SPN       0.039033
     75 H141        -0.6570     2.6920    -0.2990 hc         1 SPN       0.042700
     76 H142         0.1840     1.1680    -0.5120 hc         1 SPN       0.042700
     77 H151        -1.9480    -0.0710    -0.2330 hc         1 SPN       0.039700
     78 H152        -2.8180     1.4290     0.0150 hc         1 SPN       0.039700
     79 H161        -2.1840     2.2100    -2.2500 hc         1 SPN       0.039700
     80 H162        -1.2820     0.7340    -2.5300 hc         1 SPN       0.039700
     81 H171        -3.3440    -0.6210    -2.2670 hc         1 SPN       0.042700
     82 H172        -4.2740     0.8330    -1.9420 hc         1 SPN       0.042700
     83 HM61        -4.8030     2.4320    -3.7720 hc         1 SPN       0.038367
     84 HM62        -3.1490     2.6870    -4.2830 hc         1 SPN       0.038367
     85 HM63        -4.3320     2.0950    -5.4360 hc         1 SPN       0.038367
     86 H19         -3.3240    -1.3830    -4.3780 ha         1 SPN       0.164000
     87 H201        -4.5110    -1.2330    -6.5280 hc         1 SPN       0.043200
     88 H202        -4.2530     0.4940    -6.6400 hc         1 SPN       0.043200
     89 H211        -1.7650     0.0800    -6.7430 hc         1 SPN       0.040200
     90 H212        -2.0750    -1.6440    -6.7770 hc         1 SPN       0.040200
     91 H22         -3.0490     0.3790    -8.8340 hc         1 SPN       0.043700
     92 HM71        -3.2910    -2.6680    -8.7840 hc         1 SPN       0.031700
     93 HM72        -4.6230    -1.5150    -8.7210 hc         1 SPN       0.031700
     94 HM73        -3.6760    -1.6710   -10.1840 hc         1 SPN       0.031700
     95 H231        -0.5660    -0.0570    -8.7460 hc         1 SPN       0.040700
     96 H232        -0.8800    -1.7420    -9.1000 hc         1 SPN       0.040700
     97 H241        -1.9570    -1.0570   -11.2690 hc         1 SPN       0.043200
     98 H242        -1.6800     0.6190   -10.8710 hc         1 SPN       0.043200
     99 H25          0.4450    -1.5250   -11.4860 ha         1 SPN       0.165000
    100 HM81        -0.3060     2.1420   -11.0340 hc         1 SPN       0.038367
    101 HM82         1.3910     2.5060   -11.3230 hc         1 SPN       0.038367
    102 HM83         0.2860     2.3650   -12.6730 hc         1 SPN       0.038367
    103 H271         2.9950     0.7200   -11.9440 hc         1 SPN       0.045200
    104 H272         2.4240    -0.8900   -12.3490 hc         1 SPN       0.045200
    105 H281         1.4390    -0.0250   -14.4600 hc         1 SPN       0.045200
    106 H282         1.9720     1.5940   -14.0680 hc         1 SPN       0.045200
    107 H29          4.3480     0.9740   -14.2280 ha         1 SPN       0.164000
    108 HM91         5.3850    -0.7340   -16.9710 hc         1 SPN       0.038367
    109 HM92         5.9860    -0.0400   -15.4630 hc         1 SPN       0.038367
    110 HM93         5.7600    -1.7850   -15.6220 hc         1 SPN       0.038367
    111 HMB1         1.9640    -1.6150   -15.6010 hc         1 SPN       0.038367
    112 HMB2         3.0080    -1.7500   -17.0150 hc         1 SPN       0.038367
    113 HMB3         3.3230    -2.7330   -15.6020 hc         1 SPN       0.038367
@<TRIPOS>BOND
     1     1     2 1   
     2     1    44 1   
     3     1    45 1   
     4     1    46 1   
     5     2     5 1   
     6     3     5 1   
     7     3    47 1   
     8     3    48 1   
     9     3    49 1   
    10     4     5 1   
    11     4    50 1   
    12     4    51 1   
    13     4    52 1   
    14     5     6 1   
    15     6     7 2   
    16     6     8 1   
    17     8     9 1   
    18     8    53 1   
    19     8    54 1   
    20     9    10 2   
    21     9    55 1   
    22    10    11 1   
    23    10    12 1   
    24    11    56 1   
    25    11    57 1   
    26    11    58 1   
    27    12    13 1   
    28    12    59 1   
    29    12    60 1   
    30    13    14 1   
    31    13    61 1   
    32    13    62 1   
    33    14    15 2   
    34    14    63 1   
    35    15    16 1   
    36    15    17 1   
    37    16    64 1   
    38    16    65 1   
    39    16    66 1   
    40    17    18 1   
    41    17    67 1   
    42    17    68 1   
    43    18    19 1   
    44    18    69 1   
    45    18    70 1   
    46    19    20 2   
    47    19    71 1   
    48    20    21 1   
    49    20    22 1   
    50    21    72 1   
    51    21    73 1   
    52    21    74 1   
    53    22    23 1   
    54    22    75 1   
    55    22    76 1   
    56    23    24 1   
    57    23    77 1   
    58    23    78 1   
    59    24    25 1   
    60    24    79 1   
    61    24    80 1   
    62    25    26 1   
    63    25    81 1   
    64    25    82 1   
    65    26    27 1   
    66    26    28 2   
    67    27    83 1   
    68    27    84 1   
    69    27    85 1   
    70    28    29 1   
    71    28    86 1   
    72    29    30 1   
    73    29    87 1   
    74    29    88 1   
    75    30    31 1   
    76    30    89 1   
    77    30    90 1   
    78    31    32 1   
    79    31    33 1   
    80    31    91 1   
    81    32    92 1   
    82    32    93 1   
    83    32    94 1   
    84    33    34 1   
    85    33    95 1   
    86    33    96 1   
    87    34    35 1   
    88    34    97 1   
    89    34    98 1   
    90    35    36 2   
    91    35    99 1   
    92    36    37 1   
    93    36    38 1   
    94    37   100 1   
    95    37   101 1   
    96    37   102 1   
    97    38    39 1   
    98    38   103 1   
    99    38   104 1   
   100    39    40 1   
   101    39   105 1   
   102    39   106 1   
   103    40    41 2   
   104    40   107 1   
   105    41    42 1   
   106    41    43 1   
   107    42   108 1   
   108    42   109 1   
   109    42   110 1   
   110    43   111 1   
   111    43   112 1   
   112    43   113 1   
@<TRIPOS>SUBSTRUCTURE
     1 SPN         1 TEMP              0 ****  ****    0 ROOT
