@<TRIPOS>MOLECULE
SPN
  113   112     1     0     0
SMALL
No Charge or Current Charge


@<TRIPOS>ATOM
      1 CMA          3.8880    -1.7050    14.6400 c3         1 SPN       0.151900
      2 O1           2.7160    -0.9950    14.1740 os         1 SPN      -0.462000
      3 CM1          3.7500     1.2130    13.9270 c3         1 SPN      -0.112600
      4 CM2          3.5690    -0.4130    11.9540 c3         1 SPN      -0.112600
      5 C1           2.8780     0.1200    13.2420 c3         1 SPN       0.085000
      6 C2           1.4520     0.6810    12.8790 c          1 SPN       0.586100
      7 O2           1.1470     1.8620    13.0290 o          1 SPN      -0.512100
      8 C3           0.4280    -0.3180    12.2980 c3         1 SPN      -0.133200
      9 C4           0.2470    -0.1620    10.7910 c2         1 SPN      -0.212200
     10 C5          -0.6450     0.6120    10.1420 c2         1 SPN      -0.101400
     11 CM3         -1.6510     1.5430    10.8090 c3         1 SPN      -0.055900
     12 C6          -0.7160     0.6510     8.6220 c3         1 SPN      -0.039200
     13 C7          -1.9200    -0.1270     8.0490 c3         1 SPN      -0.036200
     14 C8          -1.9130    -0.1560     6.5310 c2         1 SPN      -0.221200
     15 C9          -1.2810    -1.0350     5.7300 c2         1 SPN      -0.112400
     16 CM4         -0.4110    -2.1910     6.2100 c3         1 SPN      -0.054900
     17 C10         -1.3930    -0.9640     4.2130 c3         1 SPN      -0.038200
     18 C11         -0.1530    -0.3350     3.5420 c3         1 SPN      -0.036200
     19 C12         -0.3270    -0.1870     2.0410 c2         1 SPN      -0.221200
     20 C13         -0.8930     0.8400     1.3770 c2         1 SPN      -0.110400
     21 CM5         -1.5020     2.0750     2.0300 c3         1 SPN      -0.054900
     22 C14         -0.9650     0.8720    -0.1430 c3         1 SPN      -0.040200
     23 C15         -2.3600     0.4970    -0.6920 c3         1 SPN      -0.074400
     24 C16         -2.4130     0.4590    -2.2360 c3         1 SPN      -0.073400
     25 C17         -3.8090     0.0850    -2.7850 c3         1 SPN      -0.040200
     26 C18         -3.8420    -0.0220    -4.3030 c2         1 SPN      -0.112400
     27 CM6         -3.9140     1.3340    -4.9950 c3         1 SPN      -0.053900
     28 C19         -3.8250    -1.2130    -4.9330 c2         1 SPN      -0.219200
     29 C20         -3.8880    -1.4700    -6.4270 c3         1 SPN      -0.038200
     30 C21         -2.4890    -1.4160    -7.0830 c3         1 SPN      -0.069400
     31 C22         -2.4820    -1.4870    -8.6370 c3         1 SPN      -0.059700
     32 CM7         -3.0700    -2.8220    -9.1670 c3         1 SPN      -0.087100
     33 C23         -1.0500    -1.2180    -9.1820 c3         1 SPN      -0.070400
     34 C24         -0.9470    -1.0630   -10.7170 c3         1 SPN      -0.039200
     35 C25          0.4390    -0.6250   -11.1520 c2         1 SPN      -0.219200
     36 C26          0.9000     0.6340   -11.2780 c2         1 SPN      -0.113400
     37 CM8          0.1030     1.8930   -10.9580 c3         1 SPN      -0.054900
     38 C27          2.3210     0.9290   -11.7420 c3         1 SPN      -0.037200
     39 C28          2.3930     1.4420   -13.1960 c3         1 SPN      -0.036200
     40 C29          3.8240     1.6410   -13.6650 c2         1 SPN      -0.224200
     41 C30          4.6320     0.7290   -14.2380 c2         1 SPN      -0.112400
     42 CM9          6.0420     1.0630   -14.6890 c3         1 SPN      -0.055900
     43 CMB          4.2710    -0.7250   -14.5060 c3         1 SPN      -0.055900
     44 HMA1         4.5610    -1.0470    15.2040 h1         1 SPN       0.030700
     45 HMA2         3.5870    -2.5180    15.3120 h1         1 SPN       0.030700
     46 HMA3         4.4450    -2.1540    13.8090 h1         1 SPN       0.030700
     47 HM11         3.3240     1.5010    14.8960 hc         1 SPN       0.048200
     48 HM12         4.7800     0.8740    14.0890 hc         1 SPN       0.048200
     49 HM13         3.8060     2.1120    13.3000 hc         1 SPN       0.048200
     50 HM21         3.0860    -1.3280    11.5920 hc         1 SPN       0.048200
     51 HM22         3.5150     0.3370    11.1550 hc         1 SPN       0.048200
     52 HM23         4.6300    -0.6310    12.1250 hc         1 SPN       0.048200
     53 H31          0.7620    -1.3420    12.5000 hc         1 SPN       0.075700
     54 H32         -0.5260    -0.1660    12.8140 hc         1 SPN       0.075700
     55 H4           0.9280    -0.7870    10.2100 ha         1 SPN       0.171000
     56 HM31        -1.5200     1.6070    11.8940 hc         1 SPN       0.039700
     57 HM32        -1.5570     2.5640    10.4210 hc         1 SPN       0.039700
     58 HM33        -2.6800     1.2120    10.6270 hc         1 SPN       0.039700
     59 H61         -0.7480     1.6880     8.2650 hc         1 SPN       0.048200
     60 H62          0.1990     0.2200     8.1960 hc         1 SPN       0.048200
     61 H71         -1.9160    -1.1440     8.4580 hc         1 SPN       0.044700
     62 H72         -2.8520     0.3310     8.4000 hc         1 SPN       0.044700
     63 H8          -2.5140     0.6390     6.0870 ha         1 SPN       0.165000
     64 HM41        -0.3220    -2.2330     7.3000 hc         1 SPN       0.039033
     65 HM42        -0.8220    -3.1530     5.8820 hc         1 SPN       0.039033
     66 HM43         0.6080    -2.1130     5.8150 hc         1 SPN       0.039033
     67 H101        -1.5720    -1.9610     3.7930 hc         1 SPN       0.044700
     68 H102        -2.2680    -0.3630     3.9350 hc         1 SPN       0.044700
     69 H111         0.0530     0.6360     4.0080 hc         1 SPN       0.046200
     70 H112         0.7280    -0.9550     3.7460 hc         1 SPN       0.046200
     71 H12          0.0820    -1.0280     1.4790 ha         1 SPN       0.164000
     72 HM51        -1.4620     2.0440     3.1230 hc         1 SPN       0.039033
     73 HM52        -0.9790     2.9850     1.7120 hc         1 SPN       0.039033
     74 HM53        -2.5580     2.1890     1.7580 hc         1 SPN       0.039033
     75 H141        -0.6750     1.8610    -0.5190 hc         1 SPN       0.042700
     76 H142        -0.2350     0.1680    -0.5630 hc         1 SPN       0.042700
     77 H151        -2.6460    -0.4860    -0.2970 hc         1 SPN       0.039700
     78 H152        -3.1030     1.2170    -0.3280 hc         1 SPN       0.039700
     79 H161        -2.1170     1.4400    -2.6260 hc         1 SPN       0.039700
     80 H162        -1.6790    -0.2670    -2.6050 hc         1 SPN       0.039700
     81 H171        -4.1020    -0.8740    -2.3400 hc         1 SPN       0.042700
     82 H172        -4.5500     0.8150    -2.4360 hc         1 SPN       0.042700
     83 HM61        -4.8190     1.8780    -4.7010 hc         1 SPN       0.038367
     84 HM62        -3.0520     1.9600    -4.7350 hc         1 SPN       0.038367
     85 HM63        -3.9240     1.2550    -6.0870 hc         1 SPN       0.038367
     86 H19         -3.7720    -2.1300    -4.3440 ha         1 SPN       0.164000
     87 H201        -4.3420    -2.4520    -6.6010 hc         1 SPN       0.043200
     88 H202        -4.5480    -0.7440    -6.9170 hc         1 SPN       0.043200
     89 H211        -2.0080    -0.4800    -6.7740 hc         1 SPN       0.040200
     90 H212        -1.8720    -2.2280    -6.6780 hc         1 SPN       0.040200
     91 H22         -3.1260    -0.6760    -9.0020 hc         1 SPN       0.043700
     92 HM71        -2.4650    -3.6740    -8.8330 hc         1 SPN       0.031700
     93 HM72        -4.0970    -2.9710    -8.8160 hc         1 SPN       0.031700
     94 HM73        -3.1070    -2.8340   -10.2610 hc         1 SPN       0.031700
     95 H231        -0.6700    -0.2950    -8.7250 hc         1 SPN       0.040700
     96 H232        -0.3780    -2.0220    -8.8570 hc         1 SPN       0.040700
     97 H241        -1.1890    -2.0160   -11.2030 hc         1 SPN       0.043200
     98 H242        -1.7050    -0.3500   -11.0610 hc         1 SPN       0.043200
     99 H25          1.0940    -1.4630   -11.3970 ha         1 SPN       0.165000
    100 HM81        -0.8710     1.6750   -10.5080 hc         1 SPN       0.038367
    101 HM82         0.6430     2.5290   -10.2470 hc         1 SPN       0.038367
    102 HM83        -0.0830     2.4870   -11.8600 hc         1 SPN       0.038367
    103 H271         2.7990     1.6560   -11.0740 hc         1 SPN       0.045200
    104 H272         2.9290     0.0190   -11.6740 hc         1 SPN       0.045200
    105 H281         1.8630     0.7390   -13.8500 hc         1 SPN       0.045200
    106 H282         1.8490     2.3910   -13.2770 hc         1 SPN       0.045200
    107 H29          4.1850     2.6590   -13.5130 ha         1 SPN       0.164000
    108 HM91         6.1640     0.8910   -15.7650 hc         1 SPN       0.038367
    109 HM92         6.2940     2.1130   -14.4950 hc         1 SPN       0.038367
    110 HM93         6.7820     0.4460   -14.1650 hc         1 SPN       0.038367
    111 HMB1         3.2780    -0.9950   -14.1300 hc         1 SPN       0.038367
    112 HMB2         4.2840    -0.9400   -15.5810 hc         1 SPN       0.038367
    113 HMB3         4.9880    -1.4010   -14.0240 hc         1 SPN       0.038367
@<TRIPOS>BOND
     1     1     2 1   
     2     1    44 1   
     3     1    45 1   
     4     1    46 1   
     5     2     5 1   
     6     3     5 1   
     7     3    47 1   
     8     3    48 1   
     9     3    49 1   
    10     4     5 1   
    11     4    50 1   
    12     4    51 1   
    13     4    52 1   
    14     5     6 1   
    15     6     7 2   
    16     6     8 1   
    17     8     9 1   
    18     8    53 1   
    19     8    54 1   
    20     9    10 2   
    21     9    55 1   
    22    10    11 1   
    23    10    12 1   
    24    11    56 1   
    25    11    57 1   
    26    11    58 1   
    27    12    13 1   
    28    12    59 1   
    29    12    60 1   
    30    13    14 1   
    31    13    61 1   
    32    13    62 1   
    33    14    15 2   
    34    14    63 1   
    35    15    16 1   
    36    15    17 1   
    37    16    64 1   
    38    16    65 1   
    39    16    66 1   
    40    17    18 1   
    41    17    67 1   
    42    17    68 1   
    43    18    19 1   
    44    18    69 1   
    45    18    70 1   
    46    19    20 2   
    47    19    71 1   
    48    20    21 1   
    49    20    22 1   
    50    21    72 1   
    51    21    73 1   
    52    21    74 1   
    53    22    23 1   
    54    22    75 1   
    55    22    76 1   
    56    23    24 1   
    57    23    77 1   
    58    23    78 1   
    59    24    25 1   
    60    24    79 1   
    61    24    80 1   
    62    25    26 1   
    63    25    81 1   
    64    25    82 1   
    65    26    27 1   
    66    26    28 2   
    67    27    83 1   
    68    27    84 1   
    69    27    85 1   
    70    28    29 1   
    71    28    86 1   
    72    29    30 1   
    73    29    87 1   
    74    29    88 1   
    75    30    31 1   
    76    30    89 1   
    77    30    90 1   
    78    31    32 1   
    79    31    33 1   
    80    31    91 1   
    81    32    92 1   
    82    32    93 1   
    83    32    94 1   
    84    33    34 1   
    85    33    95 1   
    86    33    96 1   
    87    34    35 1   
    88    34    97 1   
    89    34    98 1   
    90    35    36 2   
    91    35    99 1   
    92    36    37 1   
    93    36    38 1   
    94    37   100 1   
    95    37   101 1   
    96    37   102 1   
    97    38    39 1   
    98    38   103 1   
    99    38   104 1   
   100    39    40 1   
   101    39   105 1   
   102    39   106 1   
   103    40    41 2   
   104    40   107 1   
   105    41    42 1   
   106    41    43 1   
   107    42   108 1   
   108    42   109 1   
   109    42   110 1   
   110    43   111 1   
   111    43   112 1   
   112    43   113 1   
@<TRIPOS>SUBSTRUCTURE
     1 SPN         1 TEMP              0 ****  ****    0 ROOT
