@<TRIPOS>MOLECULE
SPO
  102   101     1     0     0
SMALL
abcg2


@<TRIPOS>ATOM
      1 CM1         -4.3890    -1.9730    13.1980 c3         1 SPO       0.150900
      2 O1          -4.1490    -0.7680    12.5150 os         1 SPO      -0.463000
      3 C1          -4.7120    -0.6340    11.2150 c3         1 SPO       0.190000
      4 C2          -4.3370    -1.8000    10.3030 c3         1 SPO      -0.117100
      5 C3          -6.2320    -0.4930    11.2950 c3         1 SPO      -0.117100
      6 C4          -4.1200     0.6790    10.6710 c3         1 SPO      -0.035200
      7 C5          -2.6310     0.6770    10.5630 c2         1 SPO      -0.187200
      8 C6          -1.9690     0.7530     9.4010 ce         1 SPO      -0.201000
      9 C7          -0.5220     0.7420     9.2470 ce         1 SPO      -0.052200
     10 C8           0.3120     0.6710    10.4890 c3         1 SPO      -0.057900
     11 C9          -0.0100     0.7790     7.9920 cf         1 SPO      -0.188000
     12 C10          1.3780     0.7580     7.6200 cf         1 SPO      -0.166000
     13 C11          1.7960     0.7430     6.3350 ce         1 SPO      -0.180000
     14 C12          3.1750     0.6990     5.9040 ce         1 SPO      -0.060200
     15 C13          4.2470     0.7120     6.9540 c3         1 SPO      -0.055900
     16 C14          3.4310     0.6320     4.5710 cf         1 SPO      -0.180000
     17 C15          4.7170     0.5480     3.9390 cf         1 SPO      -0.171000
     18 C16          4.8630     0.4280     2.5990 ce         1 SPO      -0.173000
     19 C17          6.1270     0.3050     1.9120 ce         1 SPO      -0.063200
     20 C18          7.3880     0.3300     2.7280 c3         1 SPO      -0.056900
     21 C19          6.2110     0.1490     0.5630 cf         1 SPO      -0.176000
     22 C20          5.1360     0.1100    -0.3870 cf         1 SPO      -0.172000
     23 C21          5.3370    -0.1130    -1.7070 ce         1 SPO      -0.171000
     24 C22          4.2730    -0.1520    -2.6670 ce         1 SPO      -0.180000
     25 C23          4.3760    -0.4020    -3.9990 cf         1 SPO      -0.060200
     26 C24          5.6730    -0.6960    -4.6910 c3         1 SPO      -0.055900
     27 C25          3.1640    -0.3900    -4.7910 cf         1 SPO      -0.181000
     28 C26          3.0880    -0.6220    -6.1180 ce         1 SPO      -0.166000
     29 C27          1.8410    -0.5940    -6.8460 ce         1 SPO      -0.192000
     30 C28          1.6670    -0.7980    -8.1660 c2         1 SPO      -0.095400
     31 C29          2.7700    -1.1010    -9.1320 c3         1 SPO      -0.056900
     32 C30          0.2920    -0.7040    -8.7660 c3         1 SPO      -0.041200
     33 C31          0.0720     0.5990    -9.5550 c3         1 SPO      -0.036200
     34 C32         -1.2660     0.6140   -10.2240 c2         1 SPO      -0.223200
     35 C33         -2.3380     1.3450    -9.9090 c2         1 SPO      -0.109400
     36 C34         -2.3820     2.3510    -8.7970 c3         1 SPO      -0.055900
     37 C35         -3.6200     1.1800   -10.6830 c3         1 SPO      -0.039200
     38 C36         -4.7080     0.4250    -9.9030 c3         1 SPO      -0.035200
     39 C37         -5.9800     0.3370   -10.6860 c2         1 SPO      -0.224200
     40 C38         -6.5460    -0.7490   -11.2190 c2         1 SPO      -0.111400
     41 C39         -7.8200    -0.6460   -12.0080 c3         1 SPO      -0.055900
     42 C40         -6.0010    -2.1420   -11.1050 c3         1 SPO      -0.055900
     43 HM11        -3.8860    -2.8300    12.7380 h1         1 SPO       0.026033
     44 HM12        -3.9920    -1.8550    14.2070 h1         1 SPO       0.026033
     45 HM13        -5.4530    -2.2150    13.2840 h1         1 SPO       0.026033
     46 H21A        -3.2610    -1.9740    10.2960 hc         1 SPO       0.042033
     47 H22A        -4.8330    -2.7270    10.5960 hc         1 SPO       0.042033
     48 H23         -4.6410    -1.5820     9.2780 hc         1 SPO       0.042033
     49 H31         -6.5140     0.3270    11.9580 hc         1 SPO       0.042033
     50 H32A        -6.6480    -0.2850    10.3080 hc         1 SPO       0.042033
     51 H33         -6.7120    -1.4040    11.6570 hc         1 SPO       0.042033
     52 H41         -4.5640     0.8810     9.6930 hc         1 SPO       0.053200
     53 H42         -4.4380     1.4910    11.3350 hc         1 SPO       0.053200
     54 H5          -2.0750     0.6060    11.4920 ha         1 SPO       0.183000
     55 H6          -2.5460     0.8220     8.4820 ha         1 SPO       0.166000
     56 H81          0.0870    -0.2350    11.0550 hc         1 SPO       0.042700
     57 H82          1.3810     0.6760    10.2920 hc         1 SPO       0.042700
     58 H83          0.0980     1.5120    11.1520 hc         1 SPO       0.042700
     59 H9          -0.7180     0.8180     7.1680 ha         1 SPO       0.168000
     60 H10          2.1180     0.7440     8.4120 ha         1 SPO       0.172000
     61 H11          1.0450     0.7510     5.5490 ha         1 SPO       0.170000
     62 H131         4.1770     1.6080     7.5730 hc         1 SPO       0.042033
     63 H132         4.1480    -0.1440     7.6250 hc         1 SPO       0.042033
     64 H133         5.2490     0.6820     6.5360 hc         1 SPO       0.042033
     65 H14          2.5760     0.6240     3.8990 ha         1 SPO       0.169000
     66 H15          5.5990     0.5690     4.5670 ha         1 SPO       0.173000
     67 H16          3.9590     0.4060     1.9990 ha         1 SPO       0.172000
     68 H181         8.2700     0.2470     2.0940 hc         1 SPO       0.041700
     69 H182         7.4750     1.2570     3.2990 hc         1 SPO       0.041700
     70 H183         7.4180    -0.4900     3.4490 hc         1 SPO       0.041700
     71 H19          7.2060     0.0340     0.1420 ha         1 SPO       0.168000
     72 H20          4.1190     0.2670    -0.0440 ha         1 SPO       0.172000
     73 H21          6.3550    -0.2730    -2.0480 ha         1 SPO       0.171000
     74 H22          3.2780     0.0420    -2.2740 ha         1 SPO       0.169000
     75 H241         5.8730     0.0380    -5.4750 hc         1 SPO       0.042033
     76 H242         6.5250    -0.6930    -4.0160 hc         1 SPO       0.042033
     77 H243         5.6400    -1.6730    -5.1760 hc         1 SPO       0.042033
     78 H25          2.2440    -0.1730    -4.2550 ha         1 SPO       0.170000
     79 H26          3.9980    -0.8380    -6.6690 ha         1 SPO       0.172000
     80 H27          0.9550    -0.3870    -6.2510 ha         1 SPO       0.169000
     81 H291         3.7550    -1.1500    -8.6740 hc         1 SPO       0.041033
     82 H292         2.5850    -2.0580    -9.6260 hc         1 SPO       0.041033
     83 H293         2.8140    -0.3500    -9.9240 hc         1 SPO       0.041033
     84 H301         0.1290    -1.5540    -9.4390 hc         1 SPO       0.047200
     85 H302        -0.4680    -0.7700    -7.9840 hc         1 SPO       0.047200
     86 H311         0.1970     1.4460    -8.8770 hc         1 SPO       0.046700
     87 H312         0.8510     0.6960   -10.3180 hc         1 SPO       0.046700
     88 H32         -1.3660    -0.0880   -11.0500 ha         1 SPO       0.165000
     89 H341        -1.4450     2.4260    -8.2490 hc         1 SPO       0.039367
     90 H342        -2.6210     3.3440    -9.1870 hc         1 SPO       0.039367
     91 H343        -3.1630     2.1090    -8.0730 hc         1 SPO       0.039367
     92 H351        -4.0080     2.1640   -10.9690 hc         1 SPO       0.045200
     93 H352        -3.4250     0.6420   -11.6140 hc         1 SPO       0.045200
     94 H361        -4.3280    -0.5620    -9.6340 hc         1 SPO       0.045700
     95 H362        -4.9090     0.9450    -8.9610 hc         1 SPO       0.045700
     96 H37         -6.4740     1.2920   -10.8550 ha         1 SPO       0.164000
     97 H391        -8.6120    -1.2480   -11.5550 hc         1 SPO       0.038533
     98 H392        -8.1780     0.3810   -12.0800 hc         1 SPO       0.038533
     99 H393        -7.6840    -1.0280   -13.0230 hc         1 SPO       0.038533
    100 H401        -5.1030    -2.2090   -10.4950 hc         1 SPO       0.038533
    101 H402        -6.7490    -2.8120   -10.6740 hc         1 SPO       0.038533
    102 H403        -5.7630    -2.5420   -12.0940 hc         1 SPO       0.038533
@<TRIPOS>BOND
     1     1     2 1   
     2     1    43 1   
     3     1    44 1   
     4     1    45 1   
     5     2     3 1   
     6     3     4 1   
     7     3     5 1   
     8     3     6 1   
     9     4    46 1   
    10     4    47 1   
    11     4    48 1   
    12     5    49 1   
    13     5    50 1   
    14     5    51 1   
    15     6     7 1   
    16     6    52 1   
    17     6    53 1   
    18     7     8 2   
    19     7    54 1   
    20     8     9 1   
    21     8    55 1   
    22     9    10 1   
    23     9    11 2   
    24    10    56 1   
    25    10    57 1   
    26    10    58 1   
    27    11    12 1   
    28    11    59 1   
    29    12    13 2   
    30    12    60 1   
    31    13    14 1   
    32    13    61 1   
    33    14    15 1   
    34    14    16 2   
    35    15    62 1   
    36    15    63 1   
    37    15    64 1   
    38    16    17 1   
    39    16    65 1   
    40    17    18 2   
    41    17    66 1   
    42    18    19 1   
    43    18    67 1   
    44    19    20 1   
    45    19    21 2   
    46    20    68 1   
    47    20    69 1   
    48    20    70 1   
    49    21    22 1   
    50    21    71 1   
    51    22    23 2   
    52    22    72 1   
    53    23    24 1   
    54    23    73 1   
    55    24    25 2   
    56    24    74 1   
    57    25    26 1   
    58    25    27 1   
    59    26    75 1   
    60    26    76 1   
    61    26    77 1   
    62    27    28 2   
    63    27    78 1   
    64    28    29 1   
    65    28    79 1   
    66    29    30 2   
    67    29    80 1   
    68    30    31 1   
    69    30    32 1   
    70    31    81 1   
    71    31    82 1   
    72    31    83 1   
    73    32    33 1   
    74    32    84 1   
    75    32    85 1   
    76    33    34 1   
    77    33    86 1   
    78    33    87 1   
    79    34    35 2   
    80    34    88 1   
    81    35    36 1   
    82    35    37 1   
    83    36    89 1   
    84    36    90 1   
    85    36    91 1   
    86    37    38 1   
    87    37    92 1   
    88    37    93 1   
    89    38    39 1   
    90    38    94 1   
    91    38    95 1   
    92    39    40 2   
    93    39    96 1   
    94    40    41 1   
    95    40    42 1   
    96    41    97 1   
    97    41    98 1   
    98    41    99 1   
    99    42   100 1   
   100    42   101 1   
   101    42   102 1   
@<TRIPOS>SUBSTRUCTURE
     1 SPO         1 TEMP              0 ****  ****    0 ROOT
