@<TRIPOS>MOLECULE
SPO
  102   101     1     0     0
SMALL
No Charge or Current Charge


@<TRIPOS>ATOM
      1 CM1         -4.5070    -1.4850    13.9060 c3         1 SPO       0.150900
      2 O1          -4.0640    -0.4110    13.0450 os         1 SPO      -0.463000
      3 C1          -4.7090    -0.2370    11.7550 c3         1 SPO       0.190000
      4 C2          -4.5140    -1.5220    10.9060 c3         1 SPO      -0.117100
      5 C3          -6.2120     0.0750    11.9800 c3         1 SPO      -0.117100
      6 C4          -4.0030     0.9820    11.0930 c3         1 SPO      -0.035200
      7 C5          -2.5110     0.7930    10.8760 c2         1 SPO      -0.187200
      8 C6          -1.9000     0.6870     9.6720 ce         1 SPO      -0.201000
      9 C7          -0.4530     0.5040     9.4430 ce         1 SPO      -0.052200
     10 C8           0.3890     0.0350    10.6270 c3         1 SPO      -0.057900
     11 C9           0.0650     0.6900     8.1930 cf         1 SPO      -0.188000
     12 C10          1.4600     0.5530     7.7800 cf         1 SPO      -0.166000
     13 C11          1.8880     0.6890     6.4930 ce         1 SPO      -0.180000
     14 C12          3.2720     0.5660     5.9910 ce         1 SPO      -0.060200
     15 C13          4.3970     0.6150     7.0230 c3         1 SPO      -0.055900
     16 C14          3.5030     0.4770     4.6470 cf         1 SPO      -0.180000
     17 C15          4.7940     0.3500     3.9750 cf         1 SPO      -0.171000
     18 C16          4.9470     0.3310     2.6190 ce         1 SPO      -0.173000
     19 C17          6.2180     0.2030     1.8710 ce         1 SPO      -0.063200
     20 C18          7.5000     0.2850     2.6900 c3         1 SPO      -0.056900
     21 C19          6.2880     0.0490     0.5130 cf         1 SPO      -0.176000
     22 C20          5.1830    -0.0500    -0.4400 cf         1 SPO      -0.172000
     23 C21          5.3470    -0.1620    -1.7850 ce         1 SPO      -0.171000
     24 C22          4.2370    -0.2590    -2.7460 ce         1 SPO      -0.180000
     25 C23          4.3230    -0.4310    -4.0990 cf         1 SPO      -0.060200
     26 C24          5.6560    -0.6220    -4.8190 c3         1 SPO      -0.055900
     27 C25          3.1000    -0.5060    -4.9050 cf         1 SPO      -0.181000
     28 C26          3.0000    -0.4380    -6.2640 ce         1 SPO      -0.166000
     29 C27          1.7260    -0.5090    -6.9950 ce         1 SPO      -0.192000
     30 C28          1.5870    -0.4710    -8.3420 c2         1 SPO      -0.095400
     31 C29          2.7420    -0.3460    -9.3270 c3         1 SPO      -0.056900
     32 C30          0.2230    -0.5080    -9.0170 c3         1 SPO      -0.041200
     33 C31         -0.2340     0.8790    -9.5170 c3         1 SPO      -0.036200
     34 C32         -1.6170     0.8360   -10.1410 c2         1 SPO      -0.223200
     35 C33         -2.8050     0.9520    -9.5160 c2         1 SPO      -0.109400
     36 C34         -2.9910     1.1340    -8.0150 c3         1 SPO      -0.055900
     37 C35         -4.1210     0.9260   -10.2810 c3         1 SPO      -0.039200
     38 C36         -4.8520    -0.4300   -10.1870 c3         1 SPO      -0.035200
     39 C37         -6.1120    -0.4640   -11.0340 c2         1 SPO      -0.224200
     40 C38         -6.2190    -0.8100   -12.3310 c2         1 SPO      -0.111400
     41 C39         -7.5500    -0.8290   -13.0600 c3         1 SPO      -0.055900
     42 C40         -5.0620    -1.2160   -13.2330 c3         1 SPO      -0.055900
     43 HM11        -4.3690    -2.4640    13.4320 h1         1 SPO       0.026033
     44 HM12        -3.9220    -1.4840    14.8350 h1         1 SPO       0.026033
     45 HM13        -5.5630    -1.3700    14.1820 h1         1 SPO       0.026033
     46 H21A        -3.4660    -1.8450    10.9130 hc         1 SPO       0.042033
     47 H22A        -5.1310    -2.3480    11.2770 hc         1 SPO       0.042033
     48 H23         -4.8040    -1.3390     9.8640 hc         1 SPO       0.042033
     49 H31         -6.3380     0.8870    12.7060 hc         1 SPO       0.042033
     50 H32A        -6.6840     0.3850    11.0400 hc         1 SPO       0.042033
     51 H33         -6.7570    -0.8040    12.3440 hc         1 SPO       0.042033
     52 H41         -4.4950     1.1990    10.1360 hc         1 SPO       0.053200
     53 H42         -4.1670     1.8680    11.7180 hc         1 SPO       0.053200
     54 H5          -1.9430     0.7550    11.8070 ha         1 SPO       0.183000
     55 H6          -2.5120     0.7570     8.7710 ha         1 SPO       0.166000
     56 H81         -0.1870    -0.5850    11.3220 hc         1 SPO       0.042700
     57 H82          1.2350    -0.5870    10.3160 hc         1 SPO       0.042700
     58 H83          0.7890     0.8870    11.1890 hc         1 SPO       0.042700
     59 H9          -0.6290     0.9920     7.4060 ha         1 SPO       0.168000
     60 H10          2.1930     0.3250     8.5540 ha         1 SPO       0.172000
     61 H11          1.1300     0.8940     5.7350 ha         1 SPO       0.170000
     62 H131         4.1360     1.2360     7.8870 hc         1 SPO       0.042033
     63 H132         4.6390    -0.3890     7.3920 hc         1 SPO       0.042033
     64 H133         5.3160     1.0520     6.6180 hc         1 SPO       0.042033
     65 H14          2.6310     0.4850     3.9900 ha         1 SPO       0.169000
     66 H15          5.6790     0.2480     4.6030 ha         1 SPO       0.173000
     67 H16          4.0390     0.4250     2.0270 ha         1 SPO       0.172000
     68 H181         8.3940     0.3370     2.0560 hc         1 SPO       0.041700
     69 H182         7.5110     1.1770     3.3270 hc         1 SPO       0.041700
     70 H183         7.6130    -0.5940     3.3360 hc         1 SPO       0.041700
     71 H19          7.2850    -0.0160     0.0720 ha         1 SPO       0.168000
     72 H20          4.1630    -0.0430    -0.0550 ha         1 SPO       0.172000
     73 H21          6.3640    -0.1680    -2.1790 ha         1 SPO       0.171000
     74 H22          3.2390    -0.1650    -2.3140 ha         1 SPO       0.169000
     75 H241         6.0600     0.3380    -5.1630 hc         1 SPO       0.042033
     76 H242         6.4110    -1.0920    -4.1800 hc         1 SPO       0.042033
     77 H243         5.5630    -1.2790    -5.6910 hc         1 SPO       0.042033
     78 H25          2.1690    -0.6090    -4.3460 ha         1 SPO       0.170000
     79 H26          3.9050    -0.3040    -6.8560 ha         1 SPO       0.172000
     80 H27          0.8310    -0.5890    -6.3750 ha         1 SPO       0.169000
     81 H291         3.5970    -0.9640    -9.0270 hc         1 SPO       0.041033
     82 H292         2.4620    -0.6690   -10.3370 hc         1 SPO       0.041033
     83 H293         3.0850     0.6930    -9.3960 hc         1 SPO       0.041033
     84 H301         0.2270    -1.2130    -9.8570 hc         1 SPO       0.047200
     85 H302        -0.5300    -0.8880    -8.3160 hc         1 SPO       0.047200
     86 H311        -0.2050     1.5890    -8.6820 hc         1 SPO       0.046700
     87 H312         0.4880     1.2570   -10.2510 hc         1 SPO       0.046700
     88 H32         -1.5920     0.7090   -11.2250 ha         1 SPO       0.165000
     89 H341        -2.0440     1.1390    -7.4650 hc         1 SPO       0.039367
     90 H342        -3.4980     2.0810    -7.7940 hc         1 SPO       0.039367
     91 H343        -3.5970     0.3270    -7.5880 hc         1 SPO       0.039367
     92 H351        -4.7850     1.7260    -9.9310 hc         1 SPO       0.045200
     93 H352        -3.9360     1.1370   -11.3420 hc         1 SPO       0.045200
     94 H361        -4.1620    -1.2290   -10.4840 hc         1 SPO       0.045700
     95 H362        -5.1110    -0.6360    -9.1420 hc         1 SPO       0.045700
     96 H37         -7.0080    -0.1830   -10.4780 ha         1 SPO       0.164000
     97 H391        -7.7740    -1.8300   -13.4460 hc         1 SPO       0.038533
     98 H392        -8.3780    -0.5370   -12.4030 hc         1 SPO       0.038533
     99 H393        -7.5450    -0.1350   -13.9100 hc         1 SPO       0.038533
    100 H401        -4.0890    -1.1480   -12.7360 hc         1 SPO       0.038533
    101 H402        -5.1810    -2.2490   -13.5810 hc         1 SPO       0.038533
    102 H403        -5.0120    -0.5710   -14.1190 hc         1 SPO       0.038533
@<TRIPOS>BOND
     1     1     2 1   
     2     1    43 1   
     3     1    44 1   
     4     1    45 1   
     5     2     3 1   
     6     3     4 1   
     7     3     5 1   
     8     3     6 1   
     9     4    46 1   
    10     4    47 1   
    11     4    48 1   
    12     5    49 1   
    13     5    50 1   
    14     5    51 1   
    15     6     7 1   
    16     6    52 1   
    17     6    53 1   
    18     7     8 2   
    19     7    54 1   
    20     8     9 1   
    21     8    55 1   
    22     9    10 1   
    23     9    11 2   
    24    10    56 1   
    25    10    57 1   
    26    10    58 1   
    27    11    12 1   
    28    11    59 1   
    29    12    13 2   
    30    12    60 1   
    31    13    14 1   
    32    13    61 1   
    33    14    15 1   
    34    14    16 2   
    35    15    62 1   
    36    15    63 1   
    37    15    64 1   
    38    16    17 1   
    39    16    65 1   
    40    17    18 2   
    41    17    66 1   
    42    18    19 1   
    43    18    67 1   
    44    19    20 1   
    45    19    21 2   
    46    20    68 1   
    47    20    69 1   
    48    20    70 1   
    49    21    22 1   
    50    21    71 1   
    51    22    23 2   
    52    22    72 1   
    53    23    24 1   
    54    23    73 1   
    55    24    25 2   
    56    24    74 1   
    57    25    26 1   
    58    25    27 1   
    59    26    75 1   
    60    26    76 1   
    61    26    77 1   
    62    27    28 2   
    63    27    78 1   
    64    28    29 1   
    65    28    79 1   
    66    29    30 2   
    67    29    80 1   
    68    30    31 1   
    69    30    32 1   
    70    31    81 1   
    71    31    82 1   
    72    31    83 1   
    73    32    33 1   
    74    32    84 1   
    75    32    85 1   
    76    33    34 1   
    77    33    86 1   
    78    33    87 1   
    79    34    35 2   
    80    34    88 1   
    81    35    36 1   
    82    35    37 1   
    83    36    89 1   
    84    36    90 1   
    85    36    91 1   
    86    37    38 1   
    87    37    92 1   
    88    37    93 1   
    89    38    39 1   
    90    38    94 1   
    91    38    95 1   
    92    39    40 2   
    93    39    96 1   
    94    40    41 1   
    95    40    42 1   
    96    41    97 1   
    97    41    98 1   
    98    41    99 1   
    99    42   100 1   
   100    42   101 1   
   101    42   102 1   
@<TRIPOS>SUBSTRUCTURE
     1 SPO         1 TEMP              0 ****  ****    0 ROOT
