@<TRIPOS>MOLECULE
SPP
   60    63     1     0     0
SMALL
No Charge or Current Charge


@<TRIPOS>ATOM
      1 C2           5.3420    -0.7160    -1.3700 ca         1 SPP       0.477900
      2 C3           6.2930    -0.7720    -0.2880 ca         1 SPP       0.272000
      3 C4           7.4810    -1.4980    -0.5030 ca         1 SPP      -0.152000
      4 C5           7.6660    -2.1340    -1.7440 ca         1 SPP      -0.130000
      5 C6           6.6720    -2.0310    -2.7330 ca         1 SPP       0.301900
      6 C8           4.1830     1.4920    -1.2860 c6         1 SPP       0.158800
      7 C9           2.9760     2.1120    -0.5360 c6         1 SPP       0.088000
      8 C11          1.6140     0.0810    -1.2560 c6         1 SPP       0.088000
      9 C12          2.9000    -0.4580    -1.9430 c6         1 SPP       0.158800
     10 C            0.4720     2.2040    -0.3420 c          1 SPP       0.630300
     11 C14         -0.8640     1.5110    -0.3210 cc         1 SPP      -0.133300
     12 C15         -2.0270     2.1550     0.0990 cd         1 SPP      -0.171200
     13 C16         -4.5140     1.4690     0.3490 ca         1 SPP      -0.078000
     14 C17         -5.4000     0.3800     0.1800 ca         1 SPP       0.199000
     15 C18         -4.8920    -0.8590    -0.3050 ca         1 SPP      -0.048000
     16 C19         -3.5200    -1.0140    -0.6080 ca         1 SPP      -0.121000
     17 C20         -2.6800     0.0880    -0.4190 ca         1 SPP      -0.033200
     18 C21         -3.1630     1.2750     0.0380 ca         1 SPP      -0.108800
     19 CA           6.5490    -0.5500     2.2700 c3         1 SPP       0.214500
     20 CB           6.1860     0.5340     3.3020 c3         1 SPP      -0.111100
     21 CC           5.9630    -1.9250     2.6450 c3         1 SPP      -0.111100
     22 CE          -7.2750    -1.4460     2.2540 c3         1 SPP      -0.383100
     23 N            6.0530    -0.1340     0.9540 nu         1 SPP      -0.934200
     24 N1           5.5270    -1.3340    -2.5600 nb         1 SPP      -0.683000
     25 N7           4.1300     0.0150    -1.2650 nh         1 SPP      -0.748300
     26 N10          1.6240     1.5160    -0.8170 n          1 SPP      -0.410800
     27 N13         -1.3160     0.2000    -0.6360 na         1 SPP      -0.209700
     28 ND          -6.7520     0.5750     0.4920 nu         1 SPP      -0.872100
     29 O            0.5780     3.3600     0.0520 o          1 SPP      -0.573100
     30 OS1         -8.0750    -1.4150    -0.2810 o          1 SPP      -0.527500
     31 OS2         -9.0640     0.2750     1.3420 o          1 SPP      -0.527500
     32 S           -7.9340    -0.5290     0.8770 s6         1 SPP       1.186100
     33 H4           8.2420    -1.5720     0.2670 ha         1 SPP       0.121000
     34 H5           8.5690    -2.7050    -1.9430 ha         1 SPP       0.121000
     35 H6           6.8000    -2.5200    -3.6980 h4         1 SPP       0.021100
     36 H81          4.1740     1.8490    -2.3260 h1         1 SPP       0.058700
     37 H82          5.1130     1.8610    -0.8290 h1         1 SPP       0.058700
     38 H91          3.1620     2.0200     0.5430 h1         1 SPP       0.063450
     39 H92          2.9580     3.1870    -0.7620 h1         1 SPP       0.063450
     40 H111         0.8000    -0.0690    -1.9770 h1         1 SPP       0.063450
     41 H112         1.4130    -0.5440    -0.3750 h1         1 SPP       0.063450
     42 H121         2.8570    -1.5570    -1.9510 h1         1 SPP       0.058700
     43 H122         2.9050    -0.1260    -2.9930 h1         1 SPP       0.058700
     44 H15         -2.0670     3.1900     0.4320 ha         1 SPP       0.219000
     45 H16         -4.8670     2.4300     0.7110 ha         1 SPP       0.116000
     46 H18         -5.5520    -1.7060    -0.4580 ha         1 SPP       0.141000
     47 H19         -3.1330    -1.9610    -0.9780 ha         1 SPP       0.125000
     48 HA           7.6460    -0.6320     2.2470 h1         1 SPP       0.059700
     49 HB1          6.5690     0.2620     4.2920 hc         1 SPP       0.042033
     50 HB2          6.6290     1.4980     3.0220 hc         1 SPP       0.042033
     51 HB3          5.0990     0.6590     3.3760 hc         1 SPP       0.042033
     52 HC1          6.3220    -2.2380     3.6330 hc         1 SPP       0.042033
     53 HC2          4.8670    -1.8910     2.6740 hc         1 SPP       0.042033
     54 HC3          6.2650    -2.6910     1.9210 hc         1 SPP       0.042033
     55 HE1         -7.0620    -0.7320     3.0550 h1         1 SPP       0.102367
     56 HE2         -8.0370    -2.1700     2.5600 h1         1 SPP       0.102367
     57 HE3         -6.3630    -1.9500     1.9180 h1         1 SPP       0.102367
     58 HN           5.1520     0.3460     0.9620 hn         1 SPP       0.478000
     59 HN3         -0.7340    -0.5630    -0.9610 hn         1 SPP       0.358000
     60 HND         -7.0240     1.4420     0.9360 hn         1 SPP       0.486000
@<TRIPOS>BOND
     1     1     2 ar  
     2     1    24 ar  
     3     1    25 1   
     4     2     3 ar  
     5     2    23 1   
     6     3     4 ar  
     7     3    33 1   
     8     4     5 ar  
     9     4    34 1   
    10     5    24 ar  
    11     5    35 1   
    12     6     7 1   
    13     6    25 1   
    14     6    36 1   
    15     6    37 1   
    16     7    26 1   
    17     7    38 1   
    18     7    39 1   
    19     8     9 1   
    20     8    26 1   
    21     8    40 1   
    22     8    41 1   
    23     9    25 1   
    24     9    42 1   
    25     9    43 1   
    26    10    11 1   
    27    10    26 1   
    28    10    29 2   
    29    11    12 2   
    30    11    27 1   
    31    12    18 1   
    32    12    44 1   
    33    13    14 ar  
    34    13    18 ar  
    35    13    45 1   
    36    14    15 ar  
    37    14    28 1   
    38    15    16 ar  
    39    15    46 1   
    40    16    17 ar  
    41    16    47 1   
    42    17    18 ar  
    43    17    27 1   
    44    19    20 1   
    45    19    21 1   
    46    19    23 1   
    47    19    48 1   
    48    20    49 1   
    49    20    50 1   
    50    20    51 1   
    51    21    52 1   
    52    21    53 1   
    53    21    54 1   
    54    22    32 1   
    55    22    55 1   
    56    22    56 1   
    57    22    57 1   
    58    23    58 1   
    59    27    59 1   
    60    28    32 1   
    61    28    60 1   
    62    30    32 2   
    63    31    32 2   
@<TRIPOS>SUBSTRUCTURE
     1 SPP         1 TEMP              0 ****  ****    0 ROOT
