@<TRIPOS>MOLECULE
SPP
   60    63     1     0     0
SMALL
bcc


@<TRIPOS>ATOM
      1 C2           4.7960    -0.1290    -1.2060 ca         1 SPP       0.543200
      2 C3           6.0940    -0.2630    -0.6450 ca         1 SPP       0.068300
      3 C4           7.1530    -0.3520    -1.5450 ca         1 SPP      -0.170000
      4 C5           6.8970    -0.3480    -2.9110 ca         1 SPP      -0.213300
      5 C6           5.5910    -0.2650    -3.3480 ca         1 SPP       0.367200
      6 C8           3.5780     1.3170     0.2850 c6         1 SPP       0.158800
      7 C9           2.5930     1.2570     1.4370 c6         1 SPP       0.088000
      8 C11          1.4510    -0.5820     0.3610 c6         1 SPP       0.088000
      9 C12          2.4360    -0.4980    -0.7970 c6         1 SPP       0.158800
     10 C            0.2480     1.5360     0.8630 c          1 SPP       0.697300
     11 C14         -1.0650     0.9060     0.5830 cc         1 SPP      -0.133300
     12 C15         -2.0390     1.3760    -0.2540 cd         1 SPP      -0.121200
     13 C16         -4.4130     0.4340    -0.7290 ca         1 SPP      -0.096000
     14 C17         -5.2700    -0.5880    -0.3710 ca         1 SPP       0.060600
     15 C18         -4.8870    -1.5640     0.5690 ca         1 SPP      -0.066000
     16 C19         -3.6480    -1.5290     1.1700 ca         1 SPP      -0.139000
     17 C20         -2.7800    -0.5020     0.8020 ca         1 SPP      -0.033200
     18 C21         -3.1430     0.4830    -0.1430 ca         1 SPP      -0.108800
     19 CA           7.4300    -0.7660     1.3800 c3         1 SPP       0.214500
     20 CB           7.3650    -0.3690     2.8480 c3         1 SPP      -0.111100
     21 CC           7.6180    -2.2740     1.2230 c3         1 SPP      -0.111100
     22 CE          -7.6990     1.6280    -0.0120 c3         1 SPP      -0.272300
     23 N            6.2320    -0.2760     0.7190 nu         1 SPP      -0.740600
     24 N1           4.5690    -0.1470    -2.5010 nb         1 SPP      -0.683000
     25 N7           3.7140    -0.0080    -0.3160 nh         1 SPP      -0.748300
     26 N10          1.3150     0.7190     1.0030 n          1 SPP      -0.477800
     27 N13         -1.5120    -0.2280     1.2130 na         1 SPP      -0.159400
     28 ND          -6.5580    -0.6950    -0.9680 nu         1 SPP      -0.678500
     29 O            0.3030     2.7500     1.0000 o          1 SPP      -0.573100
     30 OS1         -7.8080    -0.6900     1.2110 o          1 SPP      -0.598300
     31 OS2         -9.0340    -0.4270    -0.9660 o          1 SPP      -0.598300
     32 S           -7.8800    -0.1370    -0.1310 s6         1 SPP       1.216900
     33 H4           8.1720    -0.4480    -1.1940 ha         1 SPP       0.139000
     34 H5           7.7100    -0.4250    -3.6200 ha         1 SPP       0.139000
     35 H6           5.3510    -0.2880    -4.4050 h4         1 SPP       0.021100
     36 H81          3.2360     2.0510    -0.4580 h1         1 SPP       0.058700
     37 H82          4.5450     1.6540     0.6610 h1         1 SPP       0.058700
     38 H91          2.9850     0.6000     2.2200 h1         1 SPP       0.063450
     39 H92          2.4540     2.2450     1.8680 h1         1 SPP       0.063450
     40 H111         0.4950    -0.9330    -0.0180 h1         1 SPP       0.063450
     41 H112         1.8070    -1.3050     1.0990 h1         1 SPP       0.063450
     42 H121         2.5640    -1.4950    -1.2200 h1         1 SPP       0.058700
     43 H122         2.0140     0.1420    -1.5840 h1         1 SPP       0.058700
     44 H15         -1.9640     2.2470    -0.8850 ha         1 SPP       0.169000
     45 H16         -4.7160     1.1840    -1.4500 ha         1 SPP       0.134000
     46 H18         -5.5770    -2.3600     0.8090 ha         1 SPP       0.159000
     47 H19         -3.3600    -2.2840     1.8900 ha         1 SPP       0.143000
     48 HA           8.2880    -0.2550     0.9350 h1         1 SPP       0.059700
     49 HB1          8.2640    -0.6920     3.3710 hc         1 SPP       0.042033
     50 HB2          7.2750     0.7120     2.9600 hc         1 SPP       0.042033
     51 HB3          6.5090    -0.8360     3.3410 hc         1 SPP       0.042033
     52 HC1          8.5430    -2.5980     1.7020 hc         1 SPP       0.042033
     53 HC2          6.7910    -2.8130     1.6900 hc         1 SPP       0.042033
     54 HC3          7.6640    -2.5730     0.1760 hc         1 SPP       0.042033
     55 HE1         -7.6920     2.0540    -1.0120 h1         1 SPP       0.102367
     56 HE2         -8.5480     2.0120     0.5500 h1         1 SPP       0.102367
     57 HE3         -6.7740     1.8670     0.5090 h1         1 SPP       0.102367
     58 HN           5.3710    -0.5310     1.1860 hn         1 SPP       0.422800
     59 HN3         -1.0210    -0.7200     1.9430 hn         1 SPP       0.307700
     60 HND         -6.5990    -0.4350    -1.9480 hn         1 SPP       0.430800
@<TRIPOS>BOND
     1     1     2 ar  
     2     1    24 ar  
     3     1    25 1   
     4     2     3 ar  
     5     2    23 1   
     6     3     4 ar  
     7     3    33 1   
     8     4     5 ar  
     9     4    34 1   
    10     5    24 ar  
    11     5    35 1   
    12     6     7 1   
    13     6    25 1   
    14     6    36 1   
    15     6    37 1   
    16     7    26 1   
    17     7    38 1   
    18     7    39 1   
    19     8     9 1   
    20     8    26 1   
    21     8    40 1   
    22     8    41 1   
    23     9    25 1   
    24     9    42 1   
    25     9    43 1   
    26    10    11 1   
    27    10    26 1   
    28    10    29 2   
    29    11    12 2   
    30    11    27 1   
    31    12    18 1   
    32    12    44 1   
    33    13    14 ar  
    34    13    18 ar  
    35    13    45 1   
    36    14    15 ar  
    37    14    28 1   
    38    15    16 ar  
    39    15    46 1   
    40    16    17 ar  
    41    16    47 1   
    42    17    18 ar  
    43    17    27 1   
    44    19    20 1   
    45    19    21 1   
    46    19    23 1   
    47    19    48 1   
    48    20    49 1   
    49    20    50 1   
    50    20    51 1   
    51    21    52 1   
    52    21    53 1   
    53    21    54 1   
    54    22    32 1   
    55    22    55 1   
    56    22    56 1   
    57    22    57 1   
    58    23    58 1   
    59    27    59 1   
    60    28    32 1   
    61    28    60 1   
    62    30    32 2   
    63    31    32 2   
@<TRIPOS>SUBSTRUCTURE
     1 SPP         1 TEMP              0 ****  ****    0 ROOT
