@<TRIPOS>MOLECULE
SPQ
   36    36     1     0     0
SMALL
No Charge or Current Charge


@<TRIPOS>ATOM
      1 O6P         55.6000   123.1360     1.4270 o          1 SPQ      -0.946167
      2 P2          55.0150   122.8040     2.7560 p5         1 SPQ       1.318900
      3 O4P         55.9730   123.2470     3.8050 o          1 SPQ      -0.946167
      4 O5P         53.7260   123.5350     2.8920 o          1 SPQ      -0.946167
      5 O10         54.8090   121.2070     2.8200 os         1 SPQ      -0.613400
      6 C9          54.0640   120.4840     3.8470 c3         1 SPQ       0.382000
      7 C8          52.4620   120.4360     3.5820 c          1 SPQ       0.729000
      8 O2          51.9810   120.8670     2.5330 o          1 SPQ      -0.799000
      9 O9          51.7390   119.8450     4.3870 o          1 SPQ      -0.799000
     10 C10         54.3290   121.0270     5.3010 c3         1 SPQ       0.109600
     11 F           53.5270   122.0750     5.6430 f          1 SPQ      -0.340000
     12 O3          54.5840   119.1100     3.8080 os         1 SPQ      -0.510000
     13 C5          56.0130   118.8630     3.9930 c6         1 SPQ       0.150300
     14 C4          56.2700   117.6280     4.9210 c6         1 SPQ       0.183300
     15 O7          55.4670   117.6470     6.1240 oh         1 SPQ      -0.817000
     16 C6          56.7010   118.6390     2.6130 c6         1 SPQ      -0.038200
     17 C1          58.0950   117.9680     2.6820 ce         1 SPQ      -0.160400
     18 C7          58.8850   117.8870     1.3860 c          1 SPQ       0.708200
     19 O5          59.9890   117.3630     1.3970 o          1 SPQ      -0.796500
     20 O4          58.3950   118.3330     0.3590 o          1 SPQ      -0.796500
     21 C2          58.5670   117.4620     3.8550 c2         1 SPQ      -0.236200
     22 C3          57.8240   117.5210     5.1790 c6         1 SPQ       0.241500
     23 O1          58.4110   118.6010     5.9390 os         1 SPQ      -0.570400
     24 P1          58.1200   118.8320     7.5030 p5         1 SPQ       1.312900
     25 O3P         58.9380   119.9760     7.9860 o          1 SPQ      -0.946833
     26 O2P         56.6780   119.1450     7.6830 o          1 SPQ      -0.946833
     27 O1P         58.4770   117.6130     8.2760 o          1 SPQ      -0.946833
     28 H101        54.1350   120.2180     6.0150 h1         1 SPQ       0.071700
     29 H102        55.3750   121.3300     5.4200 h1         1 SPQ       0.071700
     30 H5          56.4900   119.7330     4.4680 h1         1 SPQ       0.125700
     31 H4          55.9770   116.7320     4.3530 h1         1 SPQ      -0.045300
     32 HO2         55.9510   118.2860     6.7660 ho         1 SPQ       0.570000
     33 H61         56.0480   118.0160     1.9860 hc         1 SPQ       0.053700
     34 H62         56.7900   119.6040     2.0970 hc         1 SPQ       0.053700
     35 H2          59.5430   116.9820     3.9020 ha         1 SPQ       0.141000
     36 H3          58.0220   116.5830     5.7170 h1         1 SPQ      -0.022300
@<TRIPOS>BOND
     1     1     2 1   
     2     2     3 1   
     3     2     4 1   
     4     2     5 1   
     5     5     6 1   
     6     6     7 1   
     7     6    10 1   
     8     6    12 1   
     9     7     8 1   
    10     7     9 1   
    11    10    11 1   
    12    10    28 1   
    13    10    29 1   
    14    12    13 1   
    15    13    14 1   
    16    13    16 1   
    17    13    30 1   
    18    14    15 1   
    19    14    22 1   
    20    14    31 1   
    21    15    32 1   
    22    16    17 1   
    23    16    33 1   
    24    16    34 1   
    25    17    18 1   
    26    17    21 2   
    27    18    19 1   
    28    18    20 1   
    29    21    22 1   
    30    21    35 1   
    31    22    23 1   
    32    22    36 1   
    33    23    24 1   
    34    24    25 1   
    35    24    26 1   
    36    24    27 1   
@<TRIPOS>SUBSTRUCTURE
     1 SPQ         1 TEMP              0 ****  ****    0 ROOT
