@<TRIPOS>MOLECULE
SPQ
   36    36     1     0     0
SMALL
abcg2


@<TRIPOS>ATOM
      1 O6P         56.1650   122.1730     1.2560 o          1 SPQ      -0.946167
      2 P2          55.5630   122.4500     2.6280 p5         1 SPQ       1.318900
      3 O4P         56.5350   122.2620     3.7880 o          1 SPQ      -0.946167
      4 O5P         54.7720   123.7520     2.6910 o          1 SPQ      -0.946167
      5 O10         54.3970   121.2260     2.7320 os         1 SPQ      -0.613400
      6 C9          53.8850   120.4730     3.7810 c3         1 SPQ       0.382000
      7 C8          52.3440   120.1860     3.5500 c          1 SPQ       0.729000
      8 O2          51.8440   120.5050     2.4490 o          1 SPQ      -0.799000
      9 O9          51.7520   119.6300     4.5080 o          1 SPQ      -0.799000
     10 C10         54.0780   121.1010     5.1620 c3         1 SPQ       0.109600
     11 F           53.2520   122.2470     5.2840 f          1 SPQ      -0.340000
     12 O3          54.4470   119.1570     3.7870 os         1 SPQ      -0.510000
     13 C5          55.8670   119.0280     3.9710 c6         1 SPQ       0.150300
     14 C4          56.1390   117.8970     4.9570 c6         1 SPQ       0.183300
     15 O7          55.4160   118.0560     6.1650 oh         1 SPQ      -0.817000
     16 C6          56.5230   118.7190     2.6290 c6         1 SPQ      -0.038200
     17 C1          57.9550   118.2760     2.7600 ce         1 SPQ      -0.160400
     18 C7          58.8360   118.3180     1.5140 c          1 SPQ       0.708200
     19 O5          60.0720   118.1160     1.6500 o          1 SPQ      -0.796500
     20 O4          58.2480   118.5500     0.4240 o          1 SPQ      -0.796500
     21 C2          58.4390   117.8400     3.9250 c2         1 SPQ      -0.236200
     22 C3          57.6510   117.7710     5.1980 c6         1 SPQ       0.241500
     23 O1          58.1290   118.8150     6.0610 os         1 SPQ      -0.570400
     24 P1          58.4470   118.4430     7.6660 p5         1 SPQ       1.312900
     25 O3P         58.8800   119.7830     8.2310 o          1 SPQ      -0.946833
     26 O2P         57.0960   117.9360     8.2050 o          1 SPQ      -0.946833
     27 O1P         59.5180   117.3640     7.6520 o          1 SPQ      -0.946833
     28 H101        53.7680   120.3960     5.9250 h1         1 SPQ       0.071700
     29 H102        55.1000   121.4400     5.2990 h1         1 SPQ       0.071700
     30 H5          56.2730   119.9610     4.3590 h1         1 SPQ       0.125700
     31 H4          55.8160   116.9620     4.4730 h1         1 SPQ      -0.045300
     32 HO2         56.0420   118.0110     6.9440 ho         1 SPQ       0.570000
     33 H61         55.9380   117.9360     2.1310 hc         1 SPQ       0.053700
     34 H62         56.4600   119.5980     1.9920 hc         1 SPQ       0.053700
     35 H2          59.4810   117.5480     3.9880 ha         1 SPQ       0.141000
     36 H3          57.8410   116.8080     5.6840 h1         1 SPQ      -0.022300
@<TRIPOS>BOND
     1     1     2 1   
     2     2     3 1   
     3     2     4 1   
     4     2     5 1   
     5     5     6 1   
     6     6     7 1   
     7     6    10 1   
     8     6    12 1   
     9     7     8 1   
    10     7     9 1   
    11    10    11 1   
    12    10    28 1   
    13    10    29 1   
    14    12    13 1   
    15    13    14 1   
    16    13    16 1   
    17    13    30 1   
    18    14    15 1   
    19    14    22 1   
    20    14    31 1   
    21    15    32 1   
    22    16    17 1   
    23    16    33 1   
    24    16    34 1   
    25    17    18 1   
    26    17    21 2   
    27    18    19 1   
    28    18    20 1   
    29    21    22 1   
    30    21    35 1   
    31    22    23 1   
    32    22    36 1   
    33    23    24 1   
    34    24    25 1   
    35    24    26 1   
    36    24    27 1   
@<TRIPOS>SUBSTRUCTURE
     1 SPQ         1 TEMP              0 ****  ****    0 ROOT
