@<TRIPOS>MOLECULE
SPS
   42    42     1     0     0
SMALL
abcg2


@<TRIPOS>ATOM
      1 C1           3.8160     0.7770     1.0670 c          1 SPS       0.600200
      2 O1           3.0260     0.8120     1.9930 o          1 SPS      -0.531000
      3 N2           5.0330     1.4310     1.1960 ns         1 SPS      -0.466500
      4 C3           6.0490     1.4760     0.2890 c          1 SPS       0.617000
      5 O3           7.0930     2.0630     0.4700 o          1 SPS      -0.544000
      6 N4           5.7740     0.7900    -0.8700 ns         1 SPS      -0.512600
      7 C5           4.6180     0.1360    -1.1310 cc         1 SPS       0.140400
      8 C7           4.5490    -0.5260    -2.4690 c3         1 SPS      -0.082900
      9 C6           3.6040     0.1090    -0.2060 cd         1 SPS      -0.259200
     10 C8           2.3680    -0.5760    -0.5150 cf         1 SPS      -0.081000
     11 C9           1.2620    -0.7250     0.2280 ce         1 SPS      -0.290200
     12 C10          0.1040    -1.4550    -0.3340 c          1 SPS       0.601300
     13 O10          0.0870    -1.9350    -1.4620 o          1 SPS      -0.608100
     14 N11         -0.9510    -1.5290     0.5070 ns         1 SPS      -0.512900
     15 C12         -2.1880    -2.2040     0.1820 c3         1 SPS       0.134700
     16 C13         -2.2300    -3.6240     0.7230 c3         1 SPS       0.142600
     17 O13         -2.1530    -3.5770     2.1280 oh         1 SPS      -0.668000
     18 C14         -3.3680    -1.3830     0.6870 c3         1 SPS      -0.055100
     19 S15         -3.2530     0.3100     0.0270 s4         1 SPS       0.210400
     20 O15         -3.2740     0.1800    -1.4770 o          1 SPS      -0.500000
     21 C16         -4.9160     0.8380     0.5420 c3         1 SPS       0.070900
     22 S17         -5.1980     2.5720     0.1610 ss         1 SPS      -0.380000
     23 C18         -5.6470     2.4920    -1.5900 c3         1 SPS       0.033900
     24 HN2          5.1930     1.9170     2.0700 hn         1 SPS       0.347500
     25 HN4          6.5020     0.7980    -1.5700 hn         1 SPS       0.462000
     26 H71          5.4950    -0.4580    -3.0030 hc         1 SPS       0.070700
     27 H72          4.3000    -1.5810    -2.3650 hc         1 SPS       0.070700
     28 H73          3.7810    -0.0650    -3.0890 hc         1 SPS       0.070700
     29 H81          2.3300    -1.0260    -1.5010 ha         1 SPS       0.188000
     30 H91          1.1720    -0.3290     1.2280 ha         1 SPS       0.206000
     31 HN11        -0.8280    -1.2020     1.4530 hn         1 SPS       0.322500
     32 H121        -2.2530    -2.2690    -0.9020 h1         1 SPS       0.103700
     33 H131        -3.1550    -4.1020     0.3770 h1         1 SPS       0.032700
     34 H132        -1.3930    -4.1840     0.2880 h1         1 SPS       0.032700
     35 HO13        -2.2100    -4.4760     2.4640 ho         1 SPS       0.446000
     36 H141        -4.3100    -1.8270     0.3590 h1         1 SPS       0.086200
     37 H142        -3.3780    -1.3000     1.7750 h1         1 SPS       0.086200
     38 H161        -5.6610     0.1960     0.0680 h2         1 SPS       0.100700
     39 H162        -4.9790     0.7220     1.6260 h2         1 SPS       0.100700
     40 H181        -5.9640     3.4920    -1.8770 h1         1 SPS       0.070700
     41 H182        -4.8050     2.1910    -2.2050 h1         1 SPS       0.070700
     42 H183        -6.4780     1.8050    -1.7420 h1         1 SPS       0.070700
@<TRIPOS>BOND
     1     1     2 2   
     2     1     3 1   
     3     1     9 1   
     4     3     4 1   
     5     3    24 1   
     6     4     5 2   
     7     4     6 1   
     8     6     7 1   
     9     6    25 1   
    10     7     8 1   
    11     7     9 2   
    12     8    26 1   
    13     8    27 1   
    14     8    28 1   
    15     9    10 1   
    16    10    11 2   
    17    10    29 1   
    18    11    12 1   
    19    11    30 1   
    20    12    13 2   
    21    12    14 1   
    22    14    15 1   
    23    14    31 1   
    24    15    16 1   
    25    15    18 1   
    26    15    32 1   
    27    16    17 1   
    28    16    33 1   
    29    16    34 1   
    30    17    35 1   
    31    18    19 1   
    32    18    36 1   
    33    18    37 1   
    34    19    20 2   
    35    19    21 1   
    36    21    22 1   
    37    21    38 1   
    38    21    39 1   
    39    22    23 1   
    40    23    40 1   
    41    23    41 1   
    42    23    42 1   
@<TRIPOS>SUBSTRUCTURE
     1 SPS         1 TEMP              0 ****  ****    0 ROOT
