@<TRIPOS>MOLECULE
SPS
   42    42     1     0     0
SMALL
No Charge or Current Charge


@<TRIPOS>ATOM
      1 C1           3.6070     1.3170     0.6900 c          1 SPS       0.600200
      2 O1           2.6150     1.7280     1.2710 o          1 SPS      -0.531000
      3 N2           4.8470     1.7620     1.0350 ns         1 SPS      -0.466500
      4 C3           6.0390     1.4300     0.4880 c          1 SPS       0.617000
      5 O3           7.0960     1.8910     0.8710 o          1 SPS      -0.544000
      6 N4           5.9540     0.5350    -0.5310 ns         1 SPS      -0.512600
      7 C5           4.7900    -0.0300    -1.0110 cc         1 SPS       0.140400
      8 C7           4.9800    -1.0000    -2.1470 c3         1 SPS      -0.082900
      9 C6           3.5920     0.3280    -0.4270 cd         1 SPS      -0.259200
     10 C8           2.3040    -0.2100    -0.8930 cf         1 SPS      -0.081000
     11 C9           1.2750    -0.6640    -0.1220 ce         1 SPS      -0.290200
     12 C10          0.0110    -1.2390    -0.6490 c          1 SPS       0.601300
     13 O10         -0.2190    -1.3590    -1.8420 o          1 SPS      -0.608100
     14 N11         -0.8780    -1.6280     0.3220 ns         1 SPS      -0.512900
     15 C12         -2.1860    -2.2530     0.0750 c3         1 SPS       0.134700
     16 C13         -2.2200    -3.6970     0.6420 c3         1 SPS       0.142600
     17 O13         -1.9840    -3.7040     2.0630 oh         1 SPS      -0.668000
     18 C14         -3.3250    -1.3760     0.6400 c3         1 SPS      -0.055100
     19 S15         -3.4440     0.2380    -0.2530 s4         1 SPS       0.210400
     20 O15         -3.9810    -0.0650    -1.6350 o          1 SPS      -0.500000
     21 C16         -4.8380     0.9350     0.7540 c3         1 SPS       0.070900
     22 S17         -5.3000     2.6950     0.3710 ss         1 SPS      -0.380000
     23 C18         -5.9770     2.5130    -1.3420 c3         1 SPS       0.033900
     24 HN2          4.8810     2.4290     1.7890 hn         1 SPS       0.347500
     25 HN4          6.8460     0.2890    -0.9450 hn         1 SPS       0.462000
     26 H71          6.0060    -1.3850    -2.1960 hc         1 SPS       0.070700
     27 H72          4.3150    -1.8640    -2.0380 hc         1 SPS       0.070700
     28 H73          4.7540    -0.5200    -3.1060 hc         1 SPS       0.070700
     29 H81          2.2070    -0.3120    -1.9780 ha         1 SPS       0.188000
     30 H91          1.3640    -0.6140     0.9610 ha         1 SPS       0.206000
     31 HN11        -0.5770    -1.5320     1.2840 hn         1 SPS       0.322500
     32 H121        -2.3450    -2.3360    -1.0090 h1         1 SPS       0.103700
     33 H131        -3.1960    -4.1480     0.4160 h1         1 SPS       0.032700
     34 H132        -1.4550    -4.2950     0.1290 h1         1 SPS       0.032700
     35 HO13        -1.9870    -4.6440     2.3510 ho         1 SPS       0.446000
     36 H141        -4.2880    -1.8890     0.5280 h1         1 SPS       0.086200
     37 H142        -3.1520    -1.1720     1.7030 h1         1 SPS       0.086200
     38 H161        -5.7030     0.2800     0.6080 h2         1 SPS       0.100700
     39 H162        -4.5160     0.8800     1.8000 h2         1 SPS       0.100700
     40 H181        -6.4240     3.4610    -1.6650 h1         1 SPS       0.070700
     41 H182        -5.1740     2.2460    -2.0390 h1         1 SPS       0.070700
     42 H183        -6.7470     1.7300    -1.3610 h1         1 SPS       0.070700
@<TRIPOS>BOND
     1     1     2 2   
     2     1     3 1   
     3     1     9 1   
     4     3     4 1   
     5     3    24 1   
     6     4     5 2   
     7     4     6 1   
     8     6     7 1   
     9     6    25 1   
    10     7     8 1   
    11     7     9 2   
    12     8    26 1   
    13     8    27 1   
    14     8    28 1   
    15     9    10 1   
    16    10    11 2   
    17    10    29 1   
    18    11    12 1   
    19    11    30 1   
    20    12    13 2   
    21    12    14 1   
    22    14    15 1   
    23    14    31 1   
    24    15    16 1   
    25    15    18 1   
    26    15    32 1   
    27    16    17 1   
    28    16    33 1   
    29    16    34 1   
    30    17    35 1   
    31    18    19 1   
    32    18    36 1   
    33    18    37 1   
    34    19    20 2   
    35    19    21 1   
    36    21    22 1   
    37    21    38 1   
    38    21    39 1   
    39    22    23 1   
    40    23    40 1   
    41    23    41 1   
    42    23    42 1   
@<TRIPOS>SUBSTRUCTURE
     1 SPS         1 TEMP              0 ****  ****    0 ROOT
