@<TRIPOS>MOLECULE
SPU
   80    79     1     0     0
SMALL
abcg2


@<TRIPOS>ATOM
      1 C11         11.5830    -1.7590    -0.6200 c3         1 SPU      -0.074400
      2 C14         10.6130    -0.9340     0.2160 c3         1 SPU      -0.074400
      3 C17          9.2840    -0.6620    -0.4800 c3         1 SPU      -0.073400
      4 C20          8.3180     0.1390     0.3820 c3         1 SPU      -0.075400
      5 C23          6.9710     0.3980    -0.2830 c3         1 SPU      -0.073400
      6 C26          5.9990     1.1440     0.6220 c3         1 SPU      -0.074400
      7 C29          4.6380     1.3950    -0.0160 c3         1 SPU      -0.074400
      8 C32          3.6460     2.0490     0.9390 c3         1 SPU      -0.075400
      9 C35          2.2860     2.3140     0.3070 c3         1 SPU      -0.072400
     10 C38          1.2640     2.8660     1.3020 c3         1 SPU      -0.039200
     11 C41         -0.0360     3.2110     0.6480 c2         1 SPU      -0.227200
     12 C43         -1.1900     2.5960     0.8900 c2         1 SPU      -0.236200
     13 C45         -2.4970     2.8900     0.2090 c3         1 SPU       0.203500
     14 O47         -2.3780     3.8350    -0.8280 oh         1 SPU      -0.654000
     15 C49         -3.1730     1.5870    -0.2640 c3         1 SPU       0.113500
     16 N51         -3.4660     0.7690     0.9000 n8         1 SPU      -1.005200
     17 C54         -4.4010     1.9000    -1.1220 c3         1 SPU       0.190600
     18 O57         -5.0580     0.6900    -1.4740 os         1 SPU      -0.599400
     19 P58         -6.6230     0.5040    -1.0550 p5         1 SPU       1.376800
     20 O59         -6.8060     0.6670     0.4290 o          1 SPU      -0.817500
     21 O60         -7.5210     1.2560    -1.9870 o          1 SPU      -0.817500
     22 O61         -6.6310    -1.1000    -1.4320 os         1 SPU      -0.575400
     23 C62         -7.8610    -1.7800    -1.3360 c3         1 SPU       0.213600
     24 C65         -7.7230    -3.1100    -0.6320 c3         1 SPU       0.084600
     25 N68         -7.4570    -3.0930     0.8520 n4         1 SPU      -0.486000
     26 C70         -8.4290    -2.2240     1.5710 c3         1 SPU       0.073567
     27 C74         -7.6150    -4.4960     1.3340 c3         1 SPU       0.073567
     28 C78         -6.0700    -2.6420     1.1710 c3         1 SPU       0.073567
     29 C21         12.8970    -2.0410     0.0990 c3         1 SPU      -0.076400
     30 C22         13.8720    -2.8760    -0.7220 c3         1 SPU      -0.074400
     31 C231        15.1750    -3.1540     0.0150 c3         1 SPU      -0.088100
     32 H11         11.1100    -2.7070    -0.8960 hc         1 SPU       0.037200
     33 H11A        11.7890    -1.2380    -1.5620 hc         1 SPU       0.037200
     34 H14         10.4220    -1.4510     1.1630 hc         1 SPU       0.037200
     35 H14A        11.0840     0.0190     0.4840 hc         1 SPU       0.037200
     36 H17          9.4670    -0.1310    -1.4200 hc         1 SPU       0.037200
     37 H17A         8.8190    -1.6150    -0.7570 hc         1 SPU       0.037200
     38 H20          8.1530    -0.3930     1.3260 hc         1 SPU       0.036700
     39 H20A         8.7800     1.0950     0.6540 hc         1 SPU       0.036700
     40 H23          7.1230     0.9640    -1.2090 hc         1 SPU       0.037200
     41 H23A         6.5260    -0.5570    -0.5830 hc         1 SPU       0.037200
     42 H26          5.8610     0.5720     1.5460 hc         1 SPU       0.036700
     43 H26A         6.4410     2.1000     0.9240 hc         1 SPU       0.036700
     44 H29          4.7590     2.0210    -0.9060 hc         1 SPU       0.037700
     45 H29A         4.2230     0.4440    -0.3690 hc         1 SPU       0.037700
     46 H32          3.5200     1.4070     1.8170 hc         1 SPU       0.036200
     47 H32A         4.0630     2.9910     1.3110 hc         1 SPU       0.036200
     48 H35          2.3990     3.0140    -0.5270 hc         1 SPU       0.039200
     49 H35A         1.8950     1.3870    -0.1250 hc         1 SPU       0.039200
     50 H38          1.1040     2.1380     2.1030 hc         1 SPU       0.041700
     51 H38A         1.6810     3.7630     1.7740 hc         1 SPU       0.041700
     52 H41          0.0100     4.0130    -0.0860 ha         1 SPU       0.170000
     53 H43         -1.2300     1.7980     1.6240 ha         1 SPU       0.190000
     54 H45         -3.1740     3.3500     0.9420 h1         1 SPU       0.082700
     55 HO47        -1.7700     3.4840    -1.4890 ho         1 SPU       0.439000
     56 H49         -2.4540     1.0320    -0.8800 h1         1 SPU       0.058700
     57 HN51        -4.2860     1.1320     1.3730 hn         1 SPU       0.401500
     58 HN5A        -3.7220    -0.1620     0.5990 hn         1 SPU       0.401500
     59 H54         -5.0630     2.5760    -0.5660 h1         1 SPU       0.045700
     60 H54A        -4.1160     2.4140    -2.0420 h1         1 SPU       0.045700
     61 H62         -8.6480    -1.1810    -0.8700 h1         1 SPU       0.057700
     62 H62A        -8.2260    -2.0260    -2.3380 h1         1 SPU       0.057700
     63 H65         -8.6640    -3.6460    -0.7630 hx         1 SPU       0.080200
     64 H65A        -6.9320    -3.7080    -1.0840 hx         1 SPU       0.080200
     65 H70         -9.4410    -2.5010     1.2850 hx         1 SPU       0.095256
     66 H70A        -8.2980    -2.3710     2.6400 hx         1 SPU       0.095256
     67 H70B        -8.2370    -1.1830     1.3300 hx         1 SPU       0.095256
     68 H74         -6.9220    -5.1390     0.7980 hx         1 SPU       0.095256
     69 H74A        -7.4010    -4.5360     2.3980 hx         1 SPU       0.095256
     70 H74B        -8.6350    -4.8260     1.1540 hx         1 SPU       0.095256
     71 H78         -5.9720    -1.5840     0.9620 hx         1 SPU       0.095256
     72 H78A        -5.8920    -2.8190     2.2290 hx         1 SPU       0.095256
     73 H78B        -5.3620    -3.2150     0.5790 hx         1 SPU       0.095256
     74 H44         13.3730    -1.0930     0.3720 hc         1 SPU       0.036700
     75 H451        12.6880    -2.5550     1.0440 hc         1 SPU       0.036700
     76 H46         13.3960    -3.8220    -0.9970 hc         1 SPU       0.036700
     77 H47         14.0870    -2.3600    -1.6630 hc         1 SPU       0.036700
     78 H48         15.6860    -2.2250     0.2760 hc         1 SPU       0.031367
     79 H491        14.9930    -3.6990     0.9430 hc         1 SPU       0.031367
     80 H50         15.8610    -3.7500    -0.5890 hc         1 SPU       0.031367
@<TRIPOS>BOND
     1     1     2 1   
     2     1    29 1   
     3     1    32 1   
     4     1    33 1   
     5     2     3 1   
     6     2    34 1   
     7     2    35 1   
     8     3     4 1   
     9     3    36 1   
    10     3    37 1   
    11     4     5 1   
    12     4    38 1   
    13     4    39 1   
    14     5     6 1   
    15     5    40 1   
    16     5    41 1   
    17     6     7 1   
    18     6    42 1   
    19     6    43 1   
    20     7     8 1   
    21     7    44 1   
    22     7    45 1   
    23     8     9 1   
    24     8    46 1   
    25     8    47 1   
    26     9    10 1   
    27     9    48 1   
    28     9    49 1   
    29    10    11 1   
    30    10    50 1   
    31    10    51 1   
    32    11    12 2   
    33    11    52 1   
    34    12    13 1   
    35    12    53 1   
    36    13    14 1   
    37    13    15 1   
    38    13    54 1   
    39    14    55 1   
    40    15    16 1   
    41    15    17 1   
    42    15    56 1   
    43    16    57 1   
    44    16    58 1   
    45    17    18 1   
    46    17    59 1   
    47    17    60 1   
    48    18    19 1   
    49    19    20 1   
    50    19    21 1   
    51    19    22 1   
    52    22    23 1   
    53    23    24 1   
    54    23    61 1   
    55    23    62 1   
    56    24    25 1   
    57    24    63 1   
    58    24    64 1   
    59    25    26 1   
    60    25    27 1   
    61    25    28 1   
    62    26    65 1   
    63    26    66 1   
    64    26    67 1   
    65    27    68 1   
    66    27    69 1   
    67    27    70 1   
    68    28    71 1   
    69    28    72 1   
    70    28    73 1   
    71    29    30 1   
    72    29    74 1   
    73    29    75 1   
    74    30    31 1   
    75    30    76 1   
    76    30    77 1   
    77    31    78 1   
    78    31    79 1   
    79    31    80 1   
@<TRIPOS>SUBSTRUCTURE
     1 SPU         1 TEMP              0 ****  ****    0 ROOT
