@<TRIPOS>MOLECULE
SPU
   80    79     1     0     0
SMALL
No Charge or Current Charge


@<TRIPOS>ATOM
      1 C11         11.2980    -1.8290    -0.2690 c3         1 SPU      -0.074400
      2 C14         10.0540    -1.5300     0.5960 c3         1 SPU      -0.074400
      3 C17          8.8660    -0.9850    -0.2270 c3         1 SPU      -0.073400
      4 C20          7.6320    -0.6480     0.6390 c3         1 SPU      -0.075400
      5 C23          6.4420    -0.1160    -0.1880 c3         1 SPU      -0.073400
      6 C26          5.2230     0.2630     0.6810 c3         1 SPU      -0.074400
      7 C29          4.0260     0.7810    -0.1460 c3         1 SPU      -0.074400
      8 C32          2.8240     1.1950     0.7310 c3         1 SPU      -0.075400
      9 C35          1.6150     1.6980    -0.0890 c3         1 SPU      -0.072400
     10 C38          0.4290     2.1360     0.7940 c3         1 SPU      -0.039200
     11 C41         -0.7630     2.5840    -0.0260 c2         1 SPU      -0.227200
     12 C43         -1.9590     1.9700    -0.0450 c2         1 SPU      -0.236200
     13 C45         -3.1670     2.4120    -0.8460 c3         1 SPU       0.203500
     14 O47         -2.8930     2.0810    -2.2090 oh         1 SPU      -0.654000
     15 C49         -4.5090     1.7460    -0.3790 c3         1 SPU       0.113500
     16 N51         -4.7180     1.9150     1.0920 n8         1 SPU      -1.005200
     17 C54         -5.7310     2.2340    -1.2320 c3         1 SPU       0.190600
     18 O57         -6.8920     1.3890    -1.0630 os         1 SPU      -0.599400
     19 P58         -7.8580     1.4350     0.2290 p5         1 SPU       1.376800
     20 O59         -7.8520     2.7840     0.8620 o          1 SPU      -0.817500
     21 O60         -9.2440     1.0050    -0.1170 o          1 SPU      -0.817500
     22 O61         -7.1230     0.3440     1.1690 os         1 SPU      -0.575400
     23 C62         -7.3030    -1.0650     0.9330 c3         1 SPU       0.213600
     24 C65         -6.3100    -1.5490    -0.1530 c3         1 SPU       0.084600
     25 N68         -5.0230    -2.2720     0.2990 n4         1 SPU      -0.486000
     26 C70         -5.3750    -3.6580     0.8590 c3         1 SPU       0.073567
     27 C74         -4.1010    -2.4490    -0.9150 c3         1 SPU       0.073567
     28 C78         -4.2800    -1.4700     1.3790 c3         1 SPU       0.073567
     29 C21         12.4880    -2.3800     0.5490 c3         1 SPU      -0.076400
     30 C22         13.7380    -2.6550    -0.3150 c3         1 SPU      -0.074400
     31 C231        14.9240    -3.2110     0.4980 c3         1 SPU      -0.088100
     32 H11         11.0310    -2.5540    -1.0480 hc         1 SPU       0.037200
     33 H11A        11.6090    -0.9090    -0.7810 hc         1 SPU       0.037200
     34 H14          9.7430    -2.4470     1.1120 hc         1 SPU       0.037200
     35 H14A        10.3210    -0.8000     1.3710 hc         1 SPU       0.037200
     36 H17          9.1830    -0.0820    -0.7640 hc         1 SPU       0.037200
     37 H17A         8.5830    -1.7260    -0.9850 hc         1 SPU       0.037200
     38 H20          7.3180    -1.5460     1.1860 hc         1 SPU       0.036700
     39 H20A         7.9140     0.1020     1.3890 hc         1 SPU       0.036700
     40 H23          6.7630     0.7650    -0.7580 hc         1 SPU       0.037200
     41 H23A         6.1410    -0.8780    -0.9180 hc         1 SPU       0.037200
     42 H26          4.9080    -0.6130     1.2620 hc         1 SPU       0.036700
     43 H26A         5.5230     1.0340     1.4020 hc         1 SPU       0.036700
     44 H29          4.3470     1.6420    -0.7450 hc         1 SPU       0.037700
     45 H29A         3.7090     0.0010    -0.8490 hc         1 SPU       0.037700
     46 H32          2.5120     0.3390     1.3420 hc         1 SPU       0.036200
     47 H32A         3.1410     1.9840     1.4250 hc         1 SPU       0.036200
     48 H35          1.9280     2.5420    -0.7150 hc         1 SPU       0.039200
     49 H35A         1.2820     0.9010    -0.7660 hc         1 SPU       0.039200
     50 H38          0.1460     1.3020     1.4490 hc         1 SPU       0.041700
     51 H38A         0.7510     2.9510     1.4540 hc         1 SPU       0.041700
     52 H41         -0.5900     3.4870    -0.6170 ha         1 SPU       0.170000
     53 H43         -2.1270     1.0770     0.5590 ha         1 SPU       0.190000
     54 H45         -3.2740     3.5020    -0.7380 h1         1 SPU       0.082700
     55 HO47        -1.9240     2.1850    -2.3180 ho         1 SPU       0.439000
     56 H49         -4.3980     0.6700    -0.5700 h1         1 SPU       0.058700
     57 HN51        -5.0410     2.8710     1.2780 hn         1 SPU       0.401500
     58 HN5A        -5.5340     1.3450     1.3610 hn         1 SPU       0.401500
     59 H54         -5.9620     3.2760    -0.9740 h1         1 SPU       0.045700
     60 H54A        -5.4490     2.2290    -2.2920 h1         1 SPU       0.045700
     61 H62         -7.1510    -1.6360     1.8570 h1         1 SPU       0.057700
     62 H62A        -8.3240    -1.2770     0.5910 h1         1 SPU       0.057700
     63 H65         -6.8420    -2.2410    -0.8090 hx         1 SPU       0.080200
     64 H65A        -6.0120    -0.6930    -0.7580 hx         1 SPU       0.080200
     65 H70         -5.8940    -4.2370     0.0920 hx         1 SPU       0.095256
     66 H70A        -4.4570    -4.1740     1.1470 hx         1 SPU       0.095256
     67 H70B        -6.0190    -3.5450     1.7340 hx         1 SPU       0.095256
     68 H74         -3.8380    -1.4680    -1.3150 hx         1 SPU       0.095256
     69 H74A        -3.1950    -2.9760    -0.6080 hx         1 SPU       0.095256
     70 H74B        -4.6210    -3.0300    -1.6810 hx         1 SPU       0.095256
     71 H78         -4.9390    -1.3160     2.2360 hx         1 SPU       0.095256
     72 H78A        -3.3950    -2.0270     1.6940 hx         1 SPU       0.095256
     73 H78B        -3.9760    -0.5060     0.9730 hx         1 SPU       0.095256
     74 H44         12.7460    -1.6620     1.3370 hc         1 SPU       0.036700
     75 H451        12.1820    -3.3080     1.0480 hc         1 SPU       0.036700
     76 H46         13.4840    -3.3700    -1.1070 hc         1 SPU       0.036700
     77 H47         14.0500    -1.7270    -0.8090 hc         1 SPU       0.036700
     78 H48         15.2230    -2.5040     1.2820 hc         1 SPU       0.031367
     79 H491        14.6570    -4.1630     0.9740 hc         1 SPU       0.031367
     80 H50         15.7880    -3.3840    -0.1550 hc         1 SPU       0.031367
@<TRIPOS>BOND
     1     1     2 1   
     2     1    29 1   
     3     1    32 1   
     4     1    33 1   
     5     2     3 1   
     6     2    34 1   
     7     2    35 1   
     8     3     4 1   
     9     3    36 1   
    10     3    37 1   
    11     4     5 1   
    12     4    38 1   
    13     4    39 1   
    14     5     6 1   
    15     5    40 1   
    16     5    41 1   
    17     6     7 1   
    18     6    42 1   
    19     6    43 1   
    20     7     8 1   
    21     7    44 1   
    22     7    45 1   
    23     8     9 1   
    24     8    46 1   
    25     8    47 1   
    26     9    10 1   
    27     9    48 1   
    28     9    49 1   
    29    10    11 1   
    30    10    50 1   
    31    10    51 1   
    32    11    12 2   
    33    11    52 1   
    34    12    13 1   
    35    12    53 1   
    36    13    14 1   
    37    13    15 1   
    38    13    54 1   
    39    14    55 1   
    40    15    16 1   
    41    15    17 1   
    42    15    56 1   
    43    16    57 1   
    44    16    58 1   
    45    17    18 1   
    46    17    59 1   
    47    17    60 1   
    48    18    19 1   
    49    19    20 1   
    50    19    21 1   
    51    19    22 1   
    52    22    23 1   
    53    23    24 1   
    54    23    61 1   
    55    23    62 1   
    56    24    25 1   
    57    24    63 1   
    58    24    64 1   
    59    25    26 1   
    60    25    27 1   
    61    25    28 1   
    62    26    65 1   
    63    26    66 1   
    64    26    67 1   
    65    27    68 1   
    66    27    69 1   
    67    27    70 1   
    68    28    71 1   
    69    28    72 1   
    70    28    73 1   
    71    29    30 1   
    72    29    74 1   
    73    29    75 1   
    74    30    31 1   
    75    30    76 1   
    76    30    77 1   
    77    31    78 1   
    78    31    79 1   
    79    31    80 1   
@<TRIPOS>SUBSTRUCTURE
     1 SPU         1 TEMP              0 ****  ****    0 ROOT
