@<TRIPOS>MOLECULE
SPV
   12    11     1     0     0
SMALL
No Charge or Current Charge


@<TRIPOS>ATOM
      1 C1          -0.0830    -0.5580     2.0930 c          1 SPV       0.639000
      2 O1           0.9870    -1.0370     2.4640 o          1 SPV      -0.729000
      3 O2          -1.1660    -0.9240     2.5470 o          1 SPV      -0.729000
      4 C2          -0.0530     0.7100     1.0700 c          1 SPV       0.474100
      5 C3           0.8660     0.6430    -0.1370 c3         1 SPV      -0.448400
      6 O4          -0.7120     1.7320     1.2780 o          1 SPV      -0.551100
      7 S            0.1460    -0.3880    -1.3790 s6         1 SPV       1.343600
      8 O1S          0.0400    -1.7010    -0.7340 o          1 SPV      -0.722867
      9 O2S          1.1240    -0.3230    -2.4740 o          1 SPV      -0.722867
     10 O3S         -1.1400     0.2580    -1.6720 o          1 SPV      -0.722867
     11 H31          1.0040     1.6380    -0.5710 h1         1 SPV       0.085200
     12 H32          1.8250     0.1980     0.1410 h1         1 SPV       0.085200
@<TRIPOS>BOND
     1     1     2 1   
     2     1     3 1   
     3     1     4 1   
     4     4     5 1   
     5     4     6 2   
     6     5     7 1   
     7     5    11 1   
     8     5    12 1   
     9     7     8 1   
    10     7     9 1   
    11     7    10 1   
@<TRIPOS>SUBSTRUCTURE
     1 SPV         1 TEMP              0 ****  ****    0 ROOT
