@<TRIPOS>MOLECULE
SPV
   12    11     1     0     0
SMALL
abcg2


@<TRIPOS>ATOM
      1 C1           0.2570     0.0250     2.5230 c          1 SPV       0.639000
      2 O1           1.4940     0.0040     2.6220 o          1 SPV      -0.729000
      3 O2          -0.6000     0.0330     3.4160 o          1 SPV      -0.729000
      4 C2          -0.2960     0.0440     1.0650 c          1 SPV       0.474100
      5 C3           0.7370     0.0200    -0.0330 c3         1 SPV      -0.448400
      6 O4          -1.4820     0.0790     0.8510 o          1 SPV      -0.551100
      7 S            0.0840     0.0070    -1.7130 s6         1 SPV       1.343600
      8 O1S         -0.7310    -1.2160    -1.8310 o          1 SPV      -0.722867
      9 O2S          1.2930    -0.0290    -2.5610 o          1 SPV      -0.722867
     10 O3S         -0.6880     1.2520    -1.8700 o          1 SPV      -0.722867
     11 H31          1.3940     0.8870     0.0690 h1         1 SPV       0.085200
     12 H32          1.3770    -0.8570     0.0880 h1         1 SPV       0.085200
@<TRIPOS>BOND
     1     1     2 1   
     2     1     3 1   
     3     1     4 1   
     4     4     5 1   
     5     4     6 2   
     6     5     7 1   
     7     5    11 1   
     8     5    12 1   
     9     7     8 1   
    10     7     9 1   
    11     7    10 1   
@<TRIPOS>SUBSTRUCTURE
     1 SPV         1 TEMP              0 ****  ****    0 ROOT
