@<TRIPOS>MOLECULE
SPX
  153   154     1     0     0
SMALL
No Charge or Current Charge


@<TRIPOS>ATOM
      1 O40          0.2180    -5.5520     3.5150 o          1 SPX      -0.499000
      2 C40          0.8620    -5.1010     2.5820 c          1 SPX       0.664300
      3 C39          0.8930    -5.7380     1.2290 ce         1 SPX      -0.289200
      4 C9           1.7270    -5.3500     0.2330 c2         1 SPX      -0.050400
      5 C10          2.7390    -4.2470     0.5090 c6         1 SPX       0.165500
      6 O10          3.9080    -4.8680     1.0630 oh         1 SPX      -0.636000
      7 C8           1.7990    -5.9970    -1.1420 c3         1 SPX      -0.064200
      8 C7           1.3090    -5.0800    -2.3010 c3         1 SPX       0.172300
      9 O7          -0.0690    -5.3820    -2.6130 os         1 SPX      -0.455000
     10 C48         -1.0510    -4.9240    -1.6670 c3         1 SPX       0.138900
     11 C6           2.1230    -5.2750    -3.6040 c3         1 SPX      -0.059200
     12 C5           1.6620    -4.3550    -4.7270 c2         1 SPX      -0.058400
     13 C38          0.9480    -5.1020    -5.8460 c3         1 SPX      -0.062900
     14 C4           1.8690    -3.0170    -4.6800 ce         1 SPX      -0.227000
     15 C3           1.4520    -2.0450    -5.7040 ce         1 SPX      -0.083000
     16 C2           1.2840    -0.6960    -5.5480 cf         1 SPX      -0.279200
     17 C1           1.4730     0.1220    -4.3180 c          1 SPX       0.619300
     18 O1           1.9300    -0.2850    -3.2590 o          1 SPX      -0.508000
     19 O25          1.0720     1.4100    -4.5490 os         1 SPX      -0.450100
     20 O11          1.6250    -3.9630     2.6900 os         1 SPX      -0.428100
     21 C11          2.0540    -3.2610     1.5020 c6         1 SPX       0.167300
     22 C12          2.8520    -1.9670     1.8990 c3         1 SPX      -0.073700
     23 C41          4.2090    -2.2200     2.6200 c3         1 SPX      -0.076100
     24 C13          1.9500    -0.9370     2.6610 c3         1 SPX       0.185300
     25 O13          1.9630    -1.2610     4.0700 os         1 SPX      -0.451000
     26 C49          0.6710    -1.4390     4.6800 c3         1 SPX       0.147900
     27 C14          2.4170     0.5340     2.4990 c3         1 SPX      -0.080400
     28 C15          1.5580     1.5900     3.2270 c3         1 SPX       0.212500
     29 O15          0.2020     1.4570     2.7550 os         1 SPX      -0.464000
     30 C50         -0.7970     2.1120     3.5580 c3         1 SPX       0.144900
     31 C16          2.0820     2.9880     2.9260 c2         1 SPX      -0.266200
     32 C17          1.5440     3.8870     2.0830 c2         1 SPX      -0.197200
     33 C18          2.1830     5.1970     1.6540 c3         1 SPX      -0.018500
     34 C42          2.0920     6.2650     2.7720 c3         1 SPX      -0.073100
     35 C19          1.6070     5.6560     0.2800 c3         1 SPX       0.169300
     36 O19          0.2620     6.1340     0.4430 oh         1 SPX      -0.660000
     37 C20          2.4540     6.7150    -0.4610 c3         1 SPX      -0.100400
     38 C21          1.9920     6.9600    -1.9150 c3         1 SPX       0.201500
     39 O21          2.8850     7.9330    -2.4820 os         1 SPX      -0.449000
     40 C51          2.4790     8.4770    -3.7520 c3         1 SPX       0.145900
     41 C22          2.0480     5.7070    -2.7750 c2         1 SPX      -0.261200
     42 C23          0.9930     4.9520    -3.1320 c2         1 SPX      -0.211200
     43 C24          1.0340     3.7890    -4.1130 c3         1 SPX      -0.024500
     44 C43          0.0350     4.0460    -5.2730 c3         1 SPX      -0.084100
     45 C25          0.9920     2.3570    -3.4600 c3         1 SPX       0.196300
     46 C26         -0.1870     1.9670    -2.4710 c3         1 SPX      -0.085700
     47 C44          0.0230     2.6200    -1.0800 c3         1 SPX      -0.094100
     48 C27         -1.6520     2.1360    -3.0150 c3         1 SPX       0.185300
     49 O27         -1.7400     1.3210    -4.2110 os         1 SPX      -0.466000
     50 C52         -2.7430     1.6590    -5.1860 c3         1 SPX       0.147900
     51 C28         -2.7970     1.7440    -1.9940 c3         1 SPX      -0.081700
     52 C45         -4.2080     2.2320    -2.4200 c3         1 SPX      -0.090100
     53 C29         -2.7900     0.2390    -1.5840 c3         1 SPX      -0.060400
     54 C30         -3.8350    -0.1470    -0.5000 c3         1 SPX      -0.184400
     55 C31         -3.6150    -1.5860    -0.0050 c          1 SPX       0.587100
     56 O31         -3.9540    -2.5430    -0.6910 o          1 SPX      -0.527100
     57 C32         -2.9330    -1.7750     1.3660 c3         1 SPX      -0.164700
     58 C46         -1.5410    -2.4240     1.1760 c3         1 SPX      -0.086100
     59 C33         -3.8740    -2.5790     2.3020 c3         1 SPX       0.185300
     60 O33         -5.1000    -1.8180     2.3830 os         1 SPX      -0.462000
     61 C53         -6.2290    -2.4830     2.9840 c3         1 SPX       0.149900
     62 C34         -3.3190    -2.8380     3.7380 c3         1 SPX      -0.056200
     63 C35         -3.1920    -1.6000     4.6110 c2         1 SPX      -0.276200
     64 C36         -3.8570    -1.4150     5.7640 c2         1 SPX      -0.071400
     65 N36         -3.7590    -0.2780     6.6030 n          1 SPX      -0.330000
     66 C47         -2.6860     0.7310     6.4340 c3         1 SPX       0.072300
     67 C37         -4.7100    -0.0950     7.6350 c          1 SPX       0.605900
     68 O37         -4.7070     0.8650     8.4000 o          1 SPX      -0.579100
     69 H39          0.2060    -6.5710     1.0990 ha         1 SPX       0.214000
     70 H10          2.9900    -3.7130    -0.4190 h1         1 SPX       0.050700
     71 H5           3.6510    -5.1890     1.9530 ho         1 SPX       0.449000
     72 H81          1.2300    -6.9340    -1.1600 hc         1 SPX       0.069200
     73 H82          2.8400    -6.2880    -1.3300 hc         1 SPX       0.069200
     74 H7           1.4110    -4.0280    -2.0030 h1         1 SPX       0.043700
     75 H481        -0.9570    -5.4490    -0.7090 h1         1 SPX       0.035700
     76 H482        -0.9490    -3.8460    -1.4900 h1         1 SPX       0.035700
     77 H483        -2.0620    -5.1090    -2.0510 h1         1 SPX       0.035700
     78 H61          3.1790    -5.0710    -3.3880 hc         1 SPX       0.058700
     79 H62          2.0790    -6.3300    -3.9040 hc         1 SPX       0.058700
     80 H381         0.2860    -5.8800    -5.4470 hc         1 SPX       0.048033
     81 H382         0.3160    -4.4470    -6.4550 hc         1 SPX       0.048033
     82 H383         1.6690    -5.5890    -6.5130 hc         1 SPX       0.048033
     83 H4           2.3790    -2.6080    -3.8090 ha         1 SPX       0.199000
     84 H3           1.2310    -2.4490    -6.6940 ha         1 SPX       0.172000
     85 H2           0.9360    -0.1310    -6.4100 ha         1 SPX       0.194000
     86 H11          1.1480    -2.9070     0.9920 h1         1 SPX       0.044700
     87 H12          3.1110    -1.4830     0.9490 hc         1 SPX       0.043700
     88 H411         4.0780    -2.8750     3.4890 hc         1 SPX       0.046367
     89 H412         4.9350    -2.6820     1.9430 hc         1 SPX       0.046367
     90 H413         4.6580    -1.2840     2.9690 hc         1 SPX       0.046367
     91 H13          0.9340    -1.0050     2.2500 h1         1 SPX       0.040700
     92 H491         0.0590    -0.5350     4.5800 h1         1 SPX       0.030700
     93 H492         0.1320    -2.2750     4.2170 h1         1 SPX       0.030700
     94 H493         0.7820    -1.6580     5.7490 h1         1 SPX       0.030700
     95 H141         2.4310     0.7810     1.4310 hc         1 SPX       0.052700
     96 H142         3.4490     0.6330     2.8520 hc         1 SPX       0.052700
     97 H15          1.6130     1.4020     4.3090 h1         1 SPX       0.059700
     98 H501        -0.7560     1.7540     4.5930 h1         1 SPX       0.031367
     99 H502        -0.6540     3.1990     3.5660 h1         1 SPX       0.031367
    100 H503        -1.7990     1.9030     3.1620 h1         1 SPX       0.031367
    101 H16          3.0370     3.2020     3.4080 ha         1 SPX       0.171000
    102 H17          0.6030     3.6660     1.5770 ha         1 SPX       0.185000
    103 H18          3.2520     5.0000     1.5000 hc         1 SPX       0.049700
    104 H421         1.0480     6.4910     3.0180 hc         1 SPX       0.039033
    105 H422         2.5830     5.9060     3.6840 hc         1 SPX       0.039033
    106 H423         2.5860     7.1950     2.4690 hc         1 SPX       0.039033
    107 H19          1.6040     4.7640    -0.3570 h1         1 SPX       0.032700
    108 H1          -0.1260     6.2180    -0.4520 ho         1 SPX       0.440000
    109 H201         3.5000     6.3860    -0.4780 hc         1 SPX       0.063700
    110 H202         2.4260     7.6620     0.0910 hc         1 SPX       0.063700
    111 H21          0.9670     7.3560    -1.9010 h1         1 SPX       0.034700
    112 H511         3.1980     9.2360    -4.0880 h1         1 SPX       0.030700
    113 H512         2.4290     7.6960    -4.5220 h1         1 SPX       0.030700
    114 H513         1.4930     8.9530    -3.6750 h1         1 SPX       0.030700
    115 H22          3.0470     5.4740    -3.1460 ha         1 SPX       0.186000
    116 H23         -0.0100     5.2110    -2.7870 ha         1 SPX       0.164000
    117 H24          2.0200     3.8230    -4.5950 hc         1 SPX       0.069700
    118 H431        -0.9820     4.2180    -4.9100 hc         1 SPX       0.038700
    119 H432         0.3320     4.9450    -5.8250 hc         1 SPX       0.038700
    120 H433         0.0150     3.2150    -5.9870 hc         1 SPX       0.038700
    121 H25          1.9210     2.2840    -2.8780 h1         1 SPX       0.060700
    122 H26         -0.0670     0.8980    -2.2760 hc         1 SPX       0.067700
    123 H441        -0.3420     3.6520    -1.0650 hc         1 SPX       0.042700
    124 H442        -0.5060     2.0620    -0.2980 hc         1 SPX       0.042700
    125 H443         1.0830     2.6130    -0.8010 hc         1 SPX       0.042700
    126 H27         -1.7870     3.1960    -3.2540 h1         1 SPX       0.044700
    127 H521        -2.8570     2.7460    -5.2830 h1         1 SPX       0.030367
    128 H522        -2.4570     1.2610    -6.1670 h1         1 SPX       0.030367
    129 H523        -3.7130     1.2180    -4.9310 h1         1 SPX       0.030367
    130 H28         -2.5990     2.3140    -1.0800 hc         1 SPX       0.051700
    131 H451        -4.8510     2.3550    -1.5400 hc         1 SPX       0.035700
    132 H452        -4.1540     3.2050    -2.9240 hc         1 SPX       0.035700
    133 H453        -4.7030     1.5160    -3.0840 hc         1 SPX       0.035700
    134 H291        -2.9530    -0.3830    -2.4730 hc         1 SPX       0.054200
    135 H292        -1.7990    -0.0240    -1.1990 hc         1 SPX       0.054200
    136 H301        -3.7440     0.5570     0.3350 hc         1 SPX       0.063200
    137 H302        -4.8390    -0.0800    -0.9340 hc         1 SPX       0.063200
    138 H32         -2.7670    -0.7870     1.8080 hc         1 SPX       0.068700
    139 H461        -1.6340    -3.4680     0.8560 hc         1 SPX       0.045367
    140 H462        -0.9620    -1.8800     0.4200 hc         1 SPX       0.045367
    141 H463        -0.9680    -2.4020     2.1090 hc         1 SPX       0.045367
    142 H33         -4.0650    -3.5540     1.8330 h1         1 SPX       0.051700
    143 H531        -7.1260    -1.8580     2.8950 h1         1 SPX       0.028700
    144 H532        -6.4300    -3.4390     2.4850 h1         1 SPX       0.028700
    145 H533        -6.0600    -2.6720     4.0510 h1         1 SPX       0.028700
    146 H341        -3.9630    -3.5770     4.2290 hc         1 SPX       0.052200
    147 H342        -2.3460    -3.3370     3.6670 hc         1 SPX       0.052200
    148 H35         -2.5090    -0.8440     4.2240 ha         1 SPX       0.178000
    149 H36         -4.5490    -2.1730     6.1380 h4         1 SPX       0.183000
    150 H471        -2.4910     1.2650     7.3720 h1         1 SPX       0.049033
    151 H472        -1.7560     0.2360     6.1280 h1         1 SPX       0.049033
    152 H473        -2.9820     1.4540     5.6630 h1         1 SPX       0.049033
    153 H37         -5.4620    -0.9050     7.6790 h5         1 SPX       0.014200
@<TRIPOS>BOND
     1     1     2 2   
     2     2     3 1   
     3     2    20 1   
     4     3     4 2   
     5     3    69 1   
     6     4     5 1   
     7     4     7 1   
     8     5     6 1   
     9     5    21 1   
    10     5    70 1   
    11     6    71 1   
    12     7     8 1   
    13     7    72 1   
    14     7    73 1   
    15     8     9 1   
    16     8    11 1   
    17     8    74 1   
    18     9    10 1   
    19    10    75 1   
    20    10    76 1   
    21    10    77 1   
    22    11    12 1   
    23    11    78 1   
    24    11    79 1   
    25    12    13 1   
    26    12    14 2   
    27    13    80 1   
    28    13    81 1   
    29    13    82 1   
    30    14    15 1   
    31    14    83 1   
    32    15    16 2   
    33    15    84 1   
    34    16    17 1   
    35    16    85 1   
    36    17    18 2   
    37    17    19 1   
    38    19    45 1   
    39    20    21 1   
    40    21    22 1   
    41    21    86 1   
    42    22    23 1   
    43    22    24 1   
    44    22    87 1   
    45    23    88 1   
    46    23    89 1   
    47    23    90 1   
    48    24    25 1   
    49    24    27 1   
    50    24    91 1   
    51    25    26 1   
    52    26    92 1   
    53    26    93 1   
    54    26    94 1   
    55    27    28 1   
    56    27    95 1   
    57    27    96 1   
    58    28    29 1   
    59    28    31 1   
    60    28    97 1   
    61    29    30 1   
    62    30    98 1   
    63    30    99 1   
    64    30   100 1   
    65    31    32 2   
    66    31   101 1   
    67    32    33 1   
    68    32   102 1   
    69    33    34 1   
    70    33    35 1   
    71    33   103 1   
    72    34   104 1   
    73    34   105 1   
    74    34   106 1   
    75    35    36 1   
    76    35    37 1   
    77    35   107 1   
    78    36   108 1   
    79    37    38 1   
    80    37   109 1   
    81    37   110 1   
    82    38    39 1   
    83    38    41 1   
    84    38   111 1   
    85    39    40 1   
    86    40   112 1   
    87    40   113 1   
    88    40   114 1   
    89    41    42 2   
    90    41   115 1   
    91    42    43 1   
    92    42   116 1   
    93    43    44 1   
    94    43    45 1   
    95    43   117 1   
    96    44   118 1   
    97    44   119 1   
    98    44   120 1   
    99    45    46 1   
   100    45   121 1   
   101    46    47 1   
   102    46    48 1   
   103    46   122 1   
   104    47   123 1   
   105    47   124 1   
   106    47   125 1   
   107    48    49 1   
   108    48    51 1   
   109    48   126 1   
   110    49    50 1   
   111    50   127 1   
   112    50   128 1   
   113    50   129 1   
   114    51    52 1   
   115    51    53 1   
   116    51   130 1   
   117    52   131 1   
   118    52   132 1   
   119    52   133 1   
   120    53    54 1   
   121    53   134 1   
   122    53   135 1   
   123    54    55 1   
   124    54   136 1   
   125    54   137 1   
   126    55    56 2   
   127    55    57 1   
   128    57    58 1   
   129    57    59 1   
   130    57   138 1   
   131    58   139 1   
   132    58   140 1   
   133    58   141 1   
   134    59    60 1   
   135    59    62 1   
   136    59   142 1   
   137    60    61 1   
   138    61   143 1   
   139    61   144 1   
   140    61   145 1   
   141    62    63 1   
   142    62   146 1   
   143    62   147 1   
   144    63    64 2   
   145    63   148 1   
   146    64    65 1   
   147    64   149 1   
   148    65    66 1   
   149    65    67 1   
   150    66   150 1   
   151    66   151 1   
   152    66   152 1   
   153    67    68 2   
   154    67   153 1   
@<TRIPOS>SUBSTRUCTURE
     1 SPX         1 TEMP              0 ****  ****    0 ROOT
