@<TRIPOS>MOLECULE
SPX
  153   154     1     0     0
SMALL
abcg2


@<TRIPOS>ATOM
      1 O40          0.8870    -5.4650     3.0580 o          1 SPX      -0.499000
      2 C40          1.2720    -4.7470     2.1670 c          1 SPX       0.664300
      3 C39          1.3820    -5.1870     0.7710 ce         1 SPX      -0.289200
      4 C9           2.0840    -4.5010    -0.1330 c2         1 SPX      -0.050400
      5 C10          2.7030    -3.1880     0.2700 c6         1 SPX       0.165500
      6 O10          4.0550    -3.4540     0.5470 oh         1 SPX      -0.636000
      7 C8           2.3600    -5.0050    -1.5110 c3         1 SPX      -0.064200
      8 C7           1.5910    -4.2410    -2.5920 c3         1 SPX       0.172300
      9 O7           0.2050    -4.4560    -2.4440 os         1 SPX      -0.455000
     10 C48         -0.5240    -3.3250    -2.0430 c3         1 SPX       0.138900
     11 C6           2.0260    -4.6860    -3.9880 c3         1 SPX      -0.059200
     12 C5           1.2960    -3.9260    -5.0710 c2         1 SPX      -0.058400
     13 C38          0.3730    -4.7360    -5.9190 c3         1 SPX      -0.062900
     14 C4           1.4900    -2.5990    -5.1630 ce         1 SPX      -0.227000
     15 C3           0.8150    -1.7110    -6.0830 ce         1 SPX      -0.083000
     16 C2           0.7490    -0.3690    -6.0260 cf         1 SPX      -0.279200
     17 C1           1.3400     0.4520    -4.9600 c          1 SPX       0.619300
     18 O1           2.3080     0.1610    -4.2930 o          1 SPX      -0.508000
     19 O25          0.6770     1.5990    -4.8240 os         1 SPX      -0.450100
     20 O11          1.6590    -3.5050     2.4650 os         1 SPX      -0.428100
     21 C11          1.9080    -2.5690     1.4170 c6         1 SPX       0.167300
     22 C12          2.5400    -1.3010     2.0040 c3         1 SPX      -0.073700
     23 C41          3.6060    -1.5850     3.0620 c3         1 SPX      -0.076100
     24 C13          1.5090    -0.2580     2.4980 c3         1 SPX       0.185300
     25 O13          1.1200    -0.4650     3.8350 os         1 SPX      -0.451000
     26 C49         -0.1280    -1.0770     4.0220 c3         1 SPX       0.147900
     27 C14          2.0990     1.1450     2.3600 c3         1 SPX      -0.080400
     28 C15          1.2680     2.2650     2.9850 c3         1 SPX       0.212500
     29 O15         -0.0490     2.1750     2.5050 os         1 SPX      -0.464000
     30 C50         -1.0170     2.6870     3.3850 c3         1 SPX       0.144900
     31 C16          1.9320     3.5750     2.6500 c2         1 SPX      -0.266200
     32 C17          1.4210     4.5440     1.9010 c2         1 SPX      -0.197200
     33 C18          2.1930     5.7360     1.4030 c3         1 SPX      -0.018500
     34 C42          1.8230     7.0270     2.1300 c3         1 SPX      -0.073100
     35 C19          1.9800     5.8070    -0.1170 c3         1 SPX       0.169300
     36 O19          0.7160     6.3960    -0.3580 oh         1 SPX      -0.660000
     37 C20          3.0990     6.4940    -0.8900 c3         1 SPX      -0.100400
     38 C21          2.8290     6.5100    -2.3980 c3         1 SPX       0.201500
     39 O21          4.0290     6.9150    -3.0240 os         1 SPX      -0.449000
     40 C51          3.8730     7.2660    -4.3770 c3         1 SPX       0.145900
     41 C22          2.3510     5.1760    -2.9230 c2         1 SPX      -0.261200
     42 C23          1.1560     5.0300    -3.4890 c2         1 SPX      -0.211200
     43 C24          0.4840     3.8360    -4.1280 c3         1 SPX      -0.024500
     44 C43         -1.0310     4.0470    -4.1080 c3         1 SPX      -0.084100
     45 C25          0.9610     2.4350    -3.6910 c3         1 SPX       0.196300
     46 C26          0.4160     1.8060    -2.3840 c3         1 SPX      -0.085700
     47 C44          0.7230     2.7600    -1.2390 c3         1 SPX      -0.094100
     48 C27         -1.0220     1.2360    -2.4190 c3         1 SPX       0.185300
     49 O27         -0.9760     0.0900    -3.2470 os         1 SPX      -0.466000
     50 C52         -2.0480    -0.0330    -4.1440 c3         1 SPX       0.147900
     51 C28         -1.5420     0.8920    -0.9970 c3         1 SPX      -0.081700
     52 C45         -2.2520     2.0960    -0.3800 c3         1 SPX      -0.090100
     53 C29         -2.4620    -0.3330    -0.9520 c3         1 SPX      -0.060400
     54 C30         -2.7180    -0.7800     0.4780 c3         1 SPX      -0.184400
     55 C31         -3.3430    -2.1370     0.6380 c          1 SPX       0.587100
     56 O31         -3.8540    -2.7430    -0.2760 o          1 SPX      -0.527100
     57 C32         -3.2400    -2.7280     2.0350 c3         1 SPX      -0.164700
     58 C46         -2.1460    -3.7950     2.0160 c3         1 SPX      -0.086100
     59 C33         -4.5890    -3.2640     2.4950 c3         1 SPX       0.185300
     60 O33         -5.4850    -2.1830     2.3800 os         1 SPX      -0.462000
     61 C53         -6.8430    -2.5420     2.3800 c3         1 SPX       0.149900
     62 C34         -4.5520    -3.8380     3.9180 c3         1 SPX      -0.056200
     63 C35         -4.0860    -2.8530     4.9430 c2         1 SPX      -0.276200
     64 C36         -4.9340    -2.1920     5.7290 c2         1 SPX      -0.071400
     65 N36         -4.5920    -1.2240     6.6690 n          1 SPX      -0.330000
     66 C47         -3.2070    -0.8410     6.8290 c3         1 SPX       0.072300
     67 C37         -5.5710    -0.6470     7.4110 c          1 SPX       0.605900
     68 O37         -5.4030     0.2090     8.2540 o          1 SPX      -0.579100
     69 H39          0.9580    -6.1560     0.5430 ha         1 SPX       0.214000
     70 H10          2.6110    -2.4800    -0.5630 h1         1 SPX       0.050700
     71 H5           4.5820    -2.6890     0.2960 ho         1 SPX       0.449000
     72 H81          2.1180    -6.0680    -1.5830 hc         1 SPX       0.069200
     73 H82          3.4310    -4.9050    -1.7110 hc         1 SPX       0.069200
     74 H7           1.8200    -3.1710    -2.5010 h1         1 SPX       0.043700
     75 H481        -0.2390    -2.9770    -1.0410 h1         1 SPX       0.035700
     76 H482        -0.4070    -2.4860    -2.7360 h1         1 SPX       0.035700
     77 H483        -1.5780    -3.6030    -2.0080 h1         1 SPX       0.035700
     78 H61          3.1040    -4.5270    -4.0780 hc         1 SPX       0.058700
     79 H62          1.8550    -5.7600    -4.0920 hc         1 SPX       0.058700
     80 H381        -0.3950    -5.1890    -5.2870 hc         1 SPX       0.048033
     81 H382        -0.1220    -4.1710    -6.7040 hc         1 SPX       0.048033
     82 H383         0.9160    -5.5620    -6.3850 hc         1 SPX       0.048033
     83 H4           2.1760    -2.1440    -4.4610 ha         1 SPX       0.199000
     84 H3           0.2590    -2.1720    -6.8920 ha         1 SPX       0.172000
     85 H2           0.1390     0.1510    -6.7540 ha         1 SPX       0.194000
     86 H11          0.9380    -2.2960     0.9730 h1         1 SPX       0.044700
     87 H12          3.0340    -0.8220     1.1500 hc         1 SPX       0.043700
     88 H411         3.1860    -2.0550     3.9480 hc         1 SPX       0.046367
     89 H412         4.3890    -2.2350     2.6780 hc         1 SPX       0.046367
     90 H413         4.0830    -0.6570     3.3790 hc         1 SPX       0.046367
     91 H13          0.6260    -0.3020     1.8430 h1         1 SPX       0.040700
     92 H491        -0.9240    -0.5480     3.4850 h1         1 SPX       0.030700
     93 H492        -0.1400    -2.1280     3.7180 h1         1 SPX       0.030700
     94 H493        -0.3560    -1.0380     5.0880 h1         1 SPX       0.030700
     95 H141         2.2360     1.3480     1.2930 hc         1 SPX       0.052700
     96 H142         3.0970     1.1860     2.8050 hc         1 SPX       0.052700
     97 H15          1.2820     2.1280     4.0760 h1         1 SPX       0.059700
     98 H501        -1.0570     2.1160     4.3200 h1         1 SPX       0.031367
     99 H502        -0.8470     3.7390     3.6360 h1         1 SPX       0.031367
    100 H503        -1.9860     2.6080     2.8930 h1         1 SPX       0.031367
    101 H16          2.9580     3.6650     3.0040 ha         1 SPX       0.171000
    102 H17          0.3990     4.4590     1.5390 ha         1 SPX       0.185000
    103 H18          3.2590     5.5440     1.5710 hc         1 SPX       0.049700
    104 H421         0.7510     7.2230     2.0880 hc         1 SPX       0.039033
    105 H422         2.1040     6.9590     3.1800 hc         1 SPX       0.039033
    106 H423         2.3390     7.8910     1.7050 hc         1 SPX       0.039033
    107 H19          1.9680     4.7710    -0.4600 h1         1 SPX       0.032700
    108 H1           0.4200     6.1230    -1.2320 ho         1 SPX       0.440000
    109 H201         4.0250     5.9420    -0.7010 hc         1 SPX       0.063700
    110 H202         3.2570     7.5210    -0.5460 hc         1 SPX       0.063700
    111 H21          2.0440     7.2540    -2.6040 h1         1 SPX       0.034700
    112 H511         4.8410     7.6050    -4.7450 h1         1 SPX       0.030700
    113 H512         3.5440     6.4250    -4.9950 h1         1 SPX       0.030700
    114 H513         3.1490     8.0790    -4.5070 h1         1 SPX       0.030700
    115 H22          3.0310     4.3370    -2.7880 ha         1 SPX       0.186000
    116 H23          0.5650     5.9400    -3.6030 ha         1 SPX       0.164000
    117 H24          0.7840     3.9020    -5.1830 hc         1 SPX       0.069700
    118 H431        -1.4230     4.1050    -3.0910 hc         1 SPX       0.038700
    119 H432        -1.2780     4.9870    -4.6030 hc         1 SPX       0.038700
    120 H433        -1.5600     3.2540    -4.6360 hc         1 SPX       0.038700
    121 H25          2.0480     2.4860    -3.5680 h1         1 SPX       0.060700
    122 H26          1.0440     0.9260    -2.1990 hc         1 SPX       0.067700
    123 H441         0.1770     3.7010    -1.3070 hc         1 SPX       0.042700
    124 H442         0.5170     2.3310    -0.2610 hc         1 SPX       0.042700
    125 H443         1.7860     2.9970    -1.2560 hc         1 SPX       0.042700
    126 H27         -1.7170     1.9630    -2.8540 h1         1 SPX       0.044700
    127 H521        -2.0710     0.7870    -4.8700 h1         1 SPX       0.030367
    128 H522        -1.9140    -0.9660    -4.6920 h1         1 SPX       0.030367
    129 H523        -3.0210    -0.0690    -3.6430 h1         1 SPX       0.030367
    130 H28         -0.6760     0.6370    -0.3700 hc         1 SPX       0.051700
    131 H451        -2.5480     1.9020     0.6510 hc         1 SPX       0.035700
    132 H452        -1.6320     2.9900    -0.3580 hc         1 SPX       0.035700
    133 H453        -3.1560     2.3330    -0.9460 hc         1 SPX       0.035700
    134 H291        -3.4130    -0.1180    -1.4460 hc         1 SPX       0.054200
    135 H292        -2.0030    -1.1570    -1.4970 hc         1 SPX       0.054200
    136 H301        -1.7900    -0.7670     1.0650 hc         1 SPX       0.063200
    137 H302        -3.3780    -0.0900     1.0170 hc         1 SPX       0.063200
    138 H32         -2.9340    -1.9250     2.7150 hc         1 SPX       0.068700
    139 H461        -2.4510    -4.6670     1.4380 hc         1 SPX       0.045367
    140 H462        -1.2300    -3.4050     1.5650 hc         1 SPX       0.045367
    141 H463        -1.8860    -4.1250     3.0200 hc         1 SPX       0.045367
    142 H33         -4.8940    -4.0770     1.8180 h1         1 SPX       0.051700
    143 H531        -7.4200    -1.6550     2.1210 h1         1 SPX       0.028700
    144 H532        -7.0590    -3.3230     1.6410 h1         1 SPX       0.028700
    145 H533        -7.1920    -2.8970     3.3550 h1         1 SPX       0.028700
    146 H341        -5.5480    -4.2110     4.1730 hc         1 SPX       0.052200
    147 H342        -3.9030    -4.7180     3.9160 hc         1 SPX       0.052200
    148 H35         -3.0190    -2.6690     5.0090 ha         1 SPX       0.178000
    149 H36         -5.9990    -2.3900     5.6710 h4         1 SPX       0.183000
    150 H471        -3.1290    -0.0530     7.5710 h1         1 SPX       0.049033
    151 H472        -2.6090    -1.6920     7.1550 h1         1 SPX       0.049033
    152 H473        -2.8060    -0.4730     5.8840 h1         1 SPX       0.049033
    153 H37         -6.5660    -1.0440     7.1640 h5         1 SPX       0.014200
@<TRIPOS>BOND
     1     1     2 2   
     2     2     3 1   
     3     2    20 1   
     4     3     4 2   
     5     3    69 1   
     6     4     5 1   
     7     4     7 1   
     8     5     6 1   
     9     5    21 1   
    10     5    70 1   
    11     6    71 1   
    12     7     8 1   
    13     7    72 1   
    14     7    73 1   
    15     8     9 1   
    16     8    11 1   
    17     8    74 1   
    18     9    10 1   
    19    10    75 1   
    20    10    76 1   
    21    10    77 1   
    22    11    12 1   
    23    11    78 1   
    24    11    79 1   
    25    12    13 1   
    26    12    14 2   
    27    13    80 1   
    28    13    81 1   
    29    13    82 1   
    30    14    15 1   
    31    14    83 1   
    32    15    16 2   
    33    15    84 1   
    34    16    17 1   
    35    16    85 1   
    36    17    18 2   
    37    17    19 1   
    38    19    45 1   
    39    20    21 1   
    40    21    22 1   
    41    21    86 1   
    42    22    23 1   
    43    22    24 1   
    44    22    87 1   
    45    23    88 1   
    46    23    89 1   
    47    23    90 1   
    48    24    25 1   
    49    24    27 1   
    50    24    91 1   
    51    25    26 1   
    52    26    92 1   
    53    26    93 1   
    54    26    94 1   
    55    27    28 1   
    56    27    95 1   
    57    27    96 1   
    58    28    29 1   
    59    28    31 1   
    60    28    97 1   
    61    29    30 1   
    62    30    98 1   
    63    30    99 1   
    64    30   100 1   
    65    31    32 2   
    66    31   101 1   
    67    32    33 1   
    68    32   102 1   
    69    33    34 1   
    70    33    35 1   
    71    33   103 1   
    72    34   104 1   
    73    34   105 1   
    74    34   106 1   
    75    35    36 1   
    76    35    37 1   
    77    35   107 1   
    78    36   108 1   
    79    37    38 1   
    80    37   109 1   
    81    37   110 1   
    82    38    39 1   
    83    38    41 1   
    84    38   111 1   
    85    39    40 1   
    86    40   112 1   
    87    40   113 1   
    88    40   114 1   
    89    41    42 2   
    90    41   115 1   
    91    42    43 1   
    92    42   116 1   
    93    43    44 1   
    94    43    45 1   
    95    43   117 1   
    96    44   118 1   
    97    44   119 1   
    98    44   120 1   
    99    45    46 1   
   100    45   121 1   
   101    46    47 1   
   102    46    48 1   
   103    46   122 1   
   104    47   123 1   
   105    47   124 1   
   106    47   125 1   
   107    48    49 1   
   108    48    51 1   
   109    48   126 1   
   110    49    50 1   
   111    50   127 1   
   112    50   128 1   
   113    50   129 1   
   114    51    52 1   
   115    51    53 1   
   116    51   130 1   
   117    52   131 1   
   118    52   132 1   
   119    52   133 1   
   120    53    54 1   
   121    53   134 1   
   122    53   135 1   
   123    54    55 1   
   124    54   136 1   
   125    54   137 1   
   126    55    56 2   
   127    55    57 1   
   128    57    58 1   
   129    57    59 1   
   130    57   138 1   
   131    58   139 1   
   132    58   140 1   
   133    58   141 1   
   134    59    60 1   
   135    59    62 1   
   136    59   142 1   
   137    60    61 1   
   138    61   143 1   
   139    61   144 1   
   140    61   145 1   
   141    62    63 1   
   142    62   146 1   
   143    62   147 1   
   144    63    64 2   
   145    63   148 1   
   146    64    65 1   
   147    64   149 1   
   148    65    66 1   
   149    65    67 1   
   150    66   150 1   
   151    66   151 1   
   152    66   152 1   
   153    67    68 2   
   154    67   153 1   
@<TRIPOS>SUBSTRUCTURE
     1 SPX         1 TEMP              0 ****  ****    0 ROOT
