@<TRIPOS>MOLECULE
SPZ
   46    45     1     0     0
SMALL
abcg2


@<TRIPOS>ATOM
      1 N1B         -7.0070    -1.1280     0.8960 n8         1 SPZ      -0.993700
      2 C1C         -6.8810    -0.1650    -0.1940 c3         1 SPZ       0.158500
      3 C1A         -8.0340     0.8360    -0.2580 c3         1 SPZ      -0.106600
      4 C1D         -5.5440     0.5630    -0.0900 c3         1 SPZ      -0.096400
      5 C1E         -4.3340    -0.3590    -0.1120 c3         1 SPZ       0.162800
      6 N1F         -3.1010     0.4040    -0.0840 n7         1 SPZ      -0.863900
      7 C1G         -1.9130    -0.4270    -0.1130 c3         1 SPZ       0.161300
      8 C1H         -0.6460     0.4140    -0.0990 c3         1 SPZ      -0.078900
      9 C1I          0.6200    -0.4310    -0.1340 c3         1 SPZ      -0.078900
     10 C1J          1.8840     0.4140    -0.1090 c3         1 SPZ       0.161300
     11 N1K          3.0760    -0.4090    -0.1690 n7         1 SPZ      -0.863900
     12 C1L          4.3030     0.3650    -0.1160 c3         1 SPZ       0.162800
     13 C1M          5.5260    -0.5370    -0.1690 c3         1 SPZ      -0.096400
     14 C1N          6.8610     0.2170    -0.1730 c3         1 SPZ       0.158500
     15 C1P          8.0160    -0.7500    -0.3940 c3         1 SPZ      -0.106600
     16 N1O          7.1260     1.0010     1.0290 n8         1 SPZ      -0.993700
     17 HN1B        -7.0320    -0.6250     1.7770 hn         1 SPZ       0.390750
     18 HN1A        -7.9050    -1.5910     0.8280 hn         1 SPZ       0.390750
     19 H1C         -6.8790    -0.7410    -1.1270 h1         1 SPZ       0.057700
     20 H1A         -8.0630     1.4470     0.6470 hc         1 SPZ       0.037700
     21 H1AA        -7.9380     1.5070    -1.1130 hc         1 SPZ       0.037700
     22 H1AB        -8.9930     0.3210    -0.3440 hc         1 SPZ       0.037700
     23 H1D         -5.4710     1.2720    -0.9220 hc         1 SPZ       0.046200
     24 H1DA        -5.5270     1.1640     0.8270 hc         1 SPZ       0.046200
     25 H1E         -4.3560    -1.0130     0.7620 h1         1 SPZ       0.031700
     26 H1EA        -4.4000    -1.0230    -0.9910 h1         1 SPZ       0.031700
     27 HN1F        -3.0820     1.0220    -0.8880 hn         1 SPZ       0.402000
     28 H1G         -1.9260    -1.0750     0.7700 h1         1 SPZ       0.028950
     29 H1GA        -1.8920    -1.1020    -0.9860 h1         1 SPZ       0.028950
     30 H1H         -0.6520     1.0920    -0.9610 hc         1 SPZ       0.044950
     31 H1HA        -0.6480     1.0480     0.7930 hc         1 SPZ       0.044950
     32 H1I          0.6240    -1.1150     0.7230 hc         1 SPZ       0.044950
     33 H1IA         0.6250    -1.0580    -1.0310 hc         1 SPZ       0.044950
     34 H1J          1.8860     1.0830    -0.9760 h1         1 SPZ       0.028950
     35 H1JA         1.8660     1.0670     0.7790 h1         1 SPZ       0.028950
     36 HN1K         3.0660    -1.0500     0.6170 hn         1 SPZ       0.402000
     37 H1L          4.3190     1.0410    -0.9790 h1         1 SPZ       0.031700
     38 H1LA         4.3450     1.0090     0.7770 h1         1 SPZ       0.031700
     39 H1M          5.5130    -1.2260     0.6850 hc         1 SPZ       0.046200
     40 H1MA         5.4590    -1.1580    -1.0690 hc         1 SPZ       0.046200
     41 H1N          6.8450     0.9220    -1.0120 h1         1 SPZ       0.057700
     42 H1P          7.8940    -1.3050    -1.3250 hc         1 SPZ       0.037700
     43 H1PA         8.9670    -0.2200    -0.4380 hc         1 SPZ       0.037700
     44 H1PB         8.0740    -1.4790     0.4190 hc         1 SPZ       0.037700
     45 HN1O         6.4100     1.7040     1.1580 hn         1 SPZ       0.390750
     46 HN1C         7.0700     0.3980     1.8430 hn         1 SPZ       0.390750
@<TRIPOS>BOND
     1     1     2 1   
     2     1    17 1   
     3     1    18 1   
     4     2     3 1   
     5     2     4 1   
     6     2    19 1   
     7     3    20 1   
     8     3    21 1   
     9     3    22 1   
    10     4     5 1   
    11     4    23 1   
    12     4    24 1   
    13     5     6 1   
    14     5    25 1   
    15     5    26 1   
    16     6     7 1   
    17     6    27 1   
    18     7     8 1   
    19     7    28 1   
    20     7    29 1   
    21     8     9 1   
    22     8    30 1   
    23     8    31 1   
    24     9    10 1   
    25     9    32 1   
    26     9    33 1   
    27    10    11 1   
    28    10    34 1   
    29    10    35 1   
    30    11    12 1   
    31    11    36 1   
    32    12    13 1   
    33    12    37 1   
    34    12    38 1   
    35    13    14 1   
    36    13    39 1   
    37    13    40 1   
    38    14    15 1   
    39    14    16 1   
    40    14    41 1   
    41    15    42 1   
    42    15    43 1   
    43    15    44 1   
    44    16    45 1   
    45    16    46 1   
@<TRIPOS>SUBSTRUCTURE
     1 SPZ         1 TEMP              0 ****  ****    0 ROOT
