@<TRIPOS>MOLECULE
SPZ
   46    45     1     0     0
SMALL
No Charge or Current Charge


@<TRIPOS>ATOM
      1 N1B         -7.2080    -1.0830     0.9470 n8         1 SPZ      -0.993700
      2 C1C         -6.9770    -0.1770    -0.1910 c3         1 SPZ       0.158500
      3 C1A         -8.1420     0.8280    -0.2880 c3         1 SPZ      -0.106600
      4 C1D         -5.6040     0.5290    -0.0770 c3         1 SPZ      -0.096400
      5 C1E         -4.3990    -0.4340    -0.1200 c3         1 SPZ       0.162800
      6 N1F         -3.1350     0.3280    -0.0980 n7         1 SPZ      -0.863900
      7 C1G         -1.9110    -0.4920    -0.1290 c3         1 SPZ       0.161300
      8 C1H         -0.6620     0.4120    -0.0900 c3         1 SPZ      -0.078900
      9 C1I          0.6600    -0.3880    -0.1160 c3         1 SPZ      -0.078900
     10 C1J          1.9090     0.5150    -0.0770 c3         1 SPZ       0.161300
     11 N1K          3.1320    -0.3060    -0.1090 n7         1 SPZ      -0.863900
     12 C1L          4.3950     0.4540    -0.0900 c3         1 SPZ       0.162800
     13 C1M          5.5970    -0.5140    -0.1450 c3         1 SPZ      -0.096400
     14 C1N          6.9740     0.1910    -0.2130 c3         1 SPZ       0.158500
     15 C1P          8.1260    -0.8070    -0.4490 c3         1 SPZ      -0.106600
     16 N1O          7.2440     0.9630     1.0130 n8         1 SPZ      -0.993700
     17 HN1B        -7.2530    -0.5270     1.8080 hn         1 SPZ       0.390750
     18 HN1A        -8.1510    -1.4810     0.8700 hn         1 SPZ       0.390750
     19 H1C         -6.9770    -0.7810    -1.1110 h1         1 SPZ       0.057700
     20 H1A         -8.1900     1.4650     0.6040 hc         1 SPZ       0.037700
     21 H1AA        -8.0170     1.4760    -1.1630 hc         1 SPZ       0.037700
     22 H1AB        -9.1010     0.3060    -0.3930 hc         1 SPZ       0.037700
     23 H1D         -5.5110     1.2420    -0.9060 hc         1 SPZ       0.046200
     24 H1DA        -5.5680     1.1160     0.8490 hc         1 SPZ       0.046200
     25 H1E         -4.4450    -1.1170     0.7400 h1         1 SPZ       0.031700
     26 H1EA        -4.4600    -1.0420    -1.0340 h1         1 SPZ       0.031700
     27 HN1F        -3.1230     0.9480    -0.9160 hn         1 SPZ       0.402000
     28 H1G         -1.8870    -1.1740     0.7330 h1         1 SPZ       0.028950
     29 H1GA        -1.8840    -1.1030    -1.0420 h1         1 SPZ       0.028950
     30 H1H         -0.6840     1.0970    -0.9470 hc         1 SPZ       0.044950
     31 H1HA        -0.6920     1.0280     0.8170 hc         1 SPZ       0.044950
     32 H1I          0.6810    -1.0730     0.7410 hc         1 SPZ       0.044950
     33 H1IA         0.6890    -1.0050    -1.0230 hc         1 SPZ       0.044950
     34 H1J          1.8840     1.1970    -0.9390 h1         1 SPZ       0.028950
     35 H1JA         1.8820     1.1260     0.8360 h1         1 SPZ       0.028950
     36 HN1K         3.1200    -0.9250     0.7100 hn         1 SPZ       0.402000
     37 H1L          4.4430     1.1330    -0.9530 h1         1 SPZ       0.031700
     38 H1LA         4.4570     1.0640     0.8220 h1         1 SPZ       0.031700
     39 H1M          5.5700    -1.1840     0.7230 hc         1 SPZ       0.046200
     40 H1MA         5.4880    -1.1480    -1.0350 hc         1 SPZ       0.046200
     41 H1N          6.9600     0.8930    -1.0610 h1         1 SPZ       0.057700
     42 H1P          7.9770    -1.3490    -1.3900 hc         1 SPZ       0.037700
     43 H1PA         9.0880    -0.2840    -0.5120 hc         1 SPZ       0.037700
     44 H1PB         8.1840    -1.5420     0.3630 hc         1 SPZ       0.037700
     45 HN1O         6.4740     1.6210     1.1740 hn         1 SPZ       0.390750
     46 HN1C         7.1970     0.3310     1.8200 hn         1 SPZ       0.390750
@<TRIPOS>BOND
     1     1     2 1   
     2     1    17 1   
     3     1    18 1   
     4     2     3 1   
     5     2     4 1   
     6     2    19 1   
     7     3    20 1   
     8     3    21 1   
     9     3    22 1   
    10     4     5 1   
    11     4    23 1   
    12     4    24 1   
    13     5     6 1   
    14     5    25 1   
    15     5    26 1   
    16     6     7 1   
    17     6    27 1   
    18     7     8 1   
    19     7    28 1   
    20     7    29 1   
    21     8     9 1   
    22     8    30 1   
    23     8    31 1   
    24     9    10 1   
    25     9    32 1   
    26     9    33 1   
    27    10    11 1   
    28    10    34 1   
    29    10    35 1   
    30    11    12 1   
    31    11    36 1   
    32    12    13 1   
    33    12    37 1   
    34    12    38 1   
    35    13    14 1   
    36    13    39 1   
    37    13    40 1   
    38    14    15 1   
    39    14    16 1   
    40    14    41 1   
    41    15    42 1   
    42    15    43 1   
    43    15    44 1   
    44    16    45 1   
    45    16    46 1   
@<TRIPOS>SUBSTRUCTURE
     1 SPZ         1 TEMP              0 ****  ****    0 ROOT
