@<TRIPOS>MOLECULE
SQ0
   45    45     1     0     0
SMALL
abcg2


@<TRIPOS>ATOM
      1 C1          24.4570   -16.0470   -23.0380 c3         1 SQ0       0.150600
      2 C2          25.0200   -14.6890   -23.3680 c3         1 SQ0       0.162600
      3 C3          24.2980   -12.8370   -24.7520 c3         1 SQ0       0.140600
      4 C4          25.5600   -12.0630   -25.1190 c3         1 SQ0       0.188800
      5 C5          27.6250   -12.7230   -23.9620 cc         1 SQ0      -0.021200
      6 O1          24.4830   -14.2360   -24.6100 os         1 SQ0      -0.452000
      7 N1          26.5210   -11.9920   -24.0230 nu         1 SQ0      -0.803200
      8 C6          28.5460   -12.9950   -22.9240 cd         1 SQ0      -0.022200
      9 C7          29.3280   -13.8950   -23.7910 c          1 SQ0       0.482300
     10 C8          28.3370   -13.6090   -24.8970 c          1 SQ0       0.483300
     11 O2          28.1800   -13.9710   -26.0560 o          1 SQ0      -0.491100
     12 O3          30.3230   -14.5950   -23.6600 o          1 SQ0      -0.499100
     13 O4          24.1950   -14.5040   -18.3500 oh         1 SQ0      -0.672000
     14 C9          25.1210   -14.9970   -19.3290 c3         1 SQ0       0.162600
     15 C10         26.2590   -15.6900   -18.6050 c3         1 SQ0      -0.083400
     16 C11         27.3050   -16.2960   -19.5490 c3         1 SQ0      -0.072400
     17 C12         28.0070   -15.2980   -20.4750 c3         1 SQ0      -0.076400
     18 C13         28.7250   -14.1650   -19.7420 c3         1 SQ0      -0.106400
     19 C14         29.5060   -13.2430   -20.6770 c3         1 SQ0       0.222800
     20 N2          28.6300   -12.6040   -21.6610 nu         1 SQ0      -0.798200
     21 O6          23.0810   -15.9090   -22.6750 oh         1 SQ0      -0.728000
     22 H1          25.0360   -16.4680   -22.2090 h1         1 SQ0       0.034700
     23 H2          24.5650   -16.7090   -23.9040 h1         1 SQ0       0.034700
     24 H3          24.7750   -13.9820   -22.5680 h1         1 SQ0       0.033700
     25 H4          26.1090   -14.7730   -23.4260 h1         1 SQ0       0.033700
     26 H5          23.5780   -12.7080   -25.5630 h1         1 SQ0       0.051700
     27 H6          23.8610   -12.4210   -23.8360 h1         1 SQ0       0.051700
     28 H7          26.0530   -12.5320   -25.9690 h1         1 SQ0       0.072700
     29 H8          25.2710   -11.0480   -25.4020 h1         1 SQ0       0.072700
     30 H9          26.2250   -11.5000   -23.1910 hn         1 SQ0       0.480000
     31 H10         23.4820   -14.0470   -18.8130 ho         1 SQ0       0.443000
     32 H11         25.4950   -14.1670   -19.9370 h1         1 SQ0       0.017200
     33 H12         24.6180   -15.7030   -20.0000 h1         1 SQ0       0.017200
     34 H13         25.8390   -16.4850   -17.9830 hc         1 SQ0       0.053700
     35 H14         26.7300   -14.9760   -17.9240 hc         1 SQ0       0.053700
     36 H15         26.8250   -17.0630   -20.1640 hc         1 SQ0       0.042700
     37 H16         28.0570   -16.8100   -18.9440 hc         1 SQ0       0.042700
     38 H17         27.2820   -14.8740   -21.1740 hc         1 SQ0       0.042200
     39 H18         28.7350   -15.8400   -21.0870 hc         1 SQ0       0.042200
     40 H19         29.4270   -14.5780   -19.0120 hc         1 SQ0       0.048700
     41 H20         28.0080   -13.5600   -19.1800 hc         1 SQ0       0.048700
     42 H21         30.2600   -13.8020   -21.2290 h1         1 SQ0       0.065200
     43 H22         30.0110   -12.4620   -20.1060 h1         1 SQ0       0.065200
     44 H23         27.8970   -12.0120   -21.2940 hn         1 SQ0       0.480000
     45 H24         22.7170   -16.7890   -22.5220 ho         1 SQ0       0.504000
@<TRIPOS>BOND
     1     1     2 1   
     2     1    21 1   
     3     1    22 1   
     4     1    23 1   
     5     2     6 1   
     6     2    24 1   
     7     2    25 1   
     8     3     4 1   
     9     3     6 1   
    10     3    26 1   
    11     3    27 1   
    12     4     7 1   
    13     4    28 1   
    14     4    29 1   
    15     5     7 1   
    16     5     8 2   
    17     5    10 1   
    18     7    30 1   
    19     8     9 1   
    20     8    20 1   
    21     9    10 1   
    22     9    12 2   
    23    10    11 2   
    24    13    14 1   
    25    13    31 1   
    26    14    15 1   
    27    14    32 1   
    28    14    33 1   
    29    15    16 1   
    30    15    34 1   
    31    15    35 1   
    32    16    17 1   
    33    16    36 1   
    34    16    37 1   
    35    17    18 1   
    36    17    38 1   
    37    17    39 1   
    38    18    19 1   
    39    18    40 1   
    40    18    41 1   
    41    19    20 1   
    42    19    42 1   
    43    19    43 1   
    44    20    44 1   
    45    21    45 1   
@<TRIPOS>SUBSTRUCTURE
     1 SQ0         1 TEMP              0 ****  ****    0 ROOT
