@<TRIPOS>MOLECULE
SQ0
   45    45     1     0     0
SMALL
No Charge or Current Charge


@<TRIPOS>ATOM
      1 C1          23.8650   -15.8470   -23.0600 c3         1 SQ0       0.150600
      2 C2          24.5760   -14.5380   -23.4790 c3         1 SQ0       0.162600
      3 C3          24.0370   -12.4120   -24.6080 c3         1 SQ0       0.140600
      4 C4          25.4800   -12.2530   -25.1780 c3         1 SQ0       0.188800
      5 C5          27.6040   -12.9340   -23.8930 cc         1 SQ0      -0.021200
      6 O1          23.6970   -13.8000   -24.3560 os         1 SQ0      -0.452000
      7 N1          26.4970   -12.1120   -24.1040 nu         1 SQ0      -0.803200
      8 C6          28.5220   -13.1010   -22.8700 cd         1 SQ0      -0.022200
      9 C7          29.2350   -14.2130   -23.5670 c          1 SQ0       0.482300
     10 C8          28.2080   -14.0260   -24.7120 c          1 SQ0       0.483300
     11 O2          27.9940   -14.5660   -25.7990 o          1 SQ0      -0.491100
     12 O3          30.1890   -14.9600   -23.3420 o          1 SQ0      -0.499100
     13 O4          24.0890   -15.5440   -19.6490 oh         1 SQ0      -0.672000
     14 C9          25.4550   -15.8060   -19.9840 c3         1 SQ0       0.162600
     15 C10         26.3440   -15.7330   -18.7250 c3         1 SQ0      -0.083400
     16 C11         27.8200   -16.1390   -18.9790 c3         1 SQ0      -0.072400
     17 C12         28.5910   -15.2620   -20.0000 c3         1 SQ0      -0.076400
     18 C13         28.8540   -13.8110   -19.5260 c3         1 SQ0      -0.106400
     19 C14         29.6000   -12.9380   -20.5610 c3         1 SQ0       0.222800
     20 N2          28.6840   -12.5000   -21.6290 nu         1 SQ0      -0.798200
     21 O6          22.7970   -15.5690   -22.1350 oh         1 SQ0      -0.728000
     22 H1          24.6020   -16.5160   -22.5990 h1         1 SQ0       0.034700
     23 H2          23.4810   -16.3530   -23.9560 h1         1 SQ0       0.034700
     24 H3          24.8280   -13.9550   -22.5840 h1         1 SQ0       0.033700
     25 H4          25.5070   -14.7980   -23.9980 h1         1 SQ0       0.033700
     26 H5          23.3350   -12.0030   -25.3460 h1         1 SQ0       0.051700
     27 H6          23.9310   -11.8100   -23.6960 h1         1 SQ0       0.051700
     28 H7          25.7060   -13.1050   -25.8340 h1         1 SQ0       0.072700
     29 H8          25.5000   -11.3520   -25.8070 h1         1 SQ0       0.072700
     30 H9          26.3270   -11.3920   -23.3930 hn         1 SQ0       0.480000
     31 H10         23.5840   -15.5750   -20.5050 ho         1 SQ0       0.443000
     32 H11         25.8050   -15.0720   -20.7200 h1         1 SQ0       0.017200
     33 H12         25.5460   -16.8050   -20.4310 h1         1 SQ0       0.017200
     34 H13         25.9300   -16.4040   -17.9620 hc         1 SQ0       0.053700
     35 H14         26.3010   -14.7210   -18.3040 hc         1 SQ0       0.053700
     36 H15         27.8380   -17.1780   -19.3310 hc         1 SQ0       0.042700
     37 H16         28.3600   -16.1310   -18.0240 hc         1 SQ0       0.042700
     38 H17         28.0530   -15.2520   -20.9540 hc         1 SQ0       0.042200
     39 H18         29.5570   -15.7410   -20.2030 hc         1 SQ0       0.042200
     40 H19         29.4610   -13.8520   -18.6130 hc         1 SQ0       0.048700
     41 H20         27.9130   -13.3190   -19.2530 hc         1 SQ0       0.048700
     42 H21         30.4540   -13.4950   -20.9730 h1         1 SQ0       0.065200
     43 H22         30.0050   -12.0550   -20.0470 h1         1 SQ0       0.065200
     44 H23         28.0270   -11.7490   -21.3960 hn         1 SQ0       0.480000
     45 H24         22.1730   -14.9740   -22.6160 ho         1 SQ0       0.504000
@<TRIPOS>BOND
     1     1     2 1   
     2     1    21 1   
     3     1    22 1   
     4     1    23 1   
     5     2     6 1   
     6     2    24 1   
     7     2    25 1   
     8     3     4 1   
     9     3     6 1   
    10     3    26 1   
    11     3    27 1   
    12     4     7 1   
    13     4    28 1   
    14     4    29 1   
    15     5     7 1   
    16     5     8 2   
    17     5    10 1   
    18     7    30 1   
    19     8     9 1   
    20     8    20 1   
    21     9    10 1   
    22     9    12 2   
    23    10    11 2   
    24    13    14 1   
    25    13    31 1   
    26    14    15 1   
    27    14    32 1   
    28    14    33 1   
    29    15    16 1   
    30    15    34 1   
    31    15    35 1   
    32    16    17 1   
    33    16    36 1   
    34    16    37 1   
    35    17    18 1   
    36    17    38 1   
    37    17    39 1   
    38    18    19 1   
    39    18    40 1   
    40    18    41 1   
    41    19    20 1   
    42    19    42 1   
    43    19    43 1   
    44    20    44 1   
    45    21    45 1   
@<TRIPOS>SUBSTRUCTURE
     1 SQ0         1 TEMP              0 ****  ****    0 ROOT
