@<TRIPOS>MOLECULE
SQ2
   37    39     1     0     0
SMALL
No Charge or Current Charge


@<TRIPOS>ATOM
      1 N1          10.8560     0.7460    22.4690 n          1 SQ2      -0.402800
      2 N3           8.6070     0.4220    18.2140 nc         1 SQ2      -0.161400
      3 C4          10.9570    -0.6570    22.9600 c6         1 SQ2       0.094000
      4 C5          10.1550     1.1290    21.2980 c          1 SQ2       0.582100
      5 C6           9.2030     0.1070    20.6520 c3         1 SQ2       0.002600
      6 C7           6.7930     1.6250    18.4500 ca         1 SQ2       0.013400
      7 C8           5.6280     2.3730    18.2260 ca         1 SQ2      -0.028000
      8 C10          5.4190     2.6360    20.6590 ca         1 SQ2      -0.077000
      9 C13         11.7920     1.6670    23.1680 c6         1 SQ2       0.094000
     10 C1          14.8820    -0.7730    23.2690 c3         1 SQ2      -0.087100
     11 C11          6.5950     1.8800    20.8540 ca         1 SQ2      -0.106000
     12 C12          7.2450     1.3950    19.7100 ca         1 SQ2      -0.058200
     13 C14         13.2550     1.1950    22.9950 c6         1 SQ2      -0.100900
     14 C2          13.4300    -0.2700    23.4790 c6         1 SQ2      -0.060700
     15 C3          12.3970    -1.1940    22.7790 c6         1 SQ2      -0.100900
     16 C9           4.9380     2.8810    19.3490 ca         1 SQ2      -0.139000
     17 N2           8.3800     0.6530    19.5620 na         1 SQ2       0.073600
     18 N4           7.6360     1.0260    17.5240 nd         1 SQ2      -0.215400
     19 O1          10.2880     2.2580    20.8380 o          1 SQ2      -0.574100
     20 H1          10.6950    -0.6770    24.0280 h1         1 SQ2       0.057200
     21 H2          10.2540    -1.3270    22.4500 h1         1 SQ2       0.057200
     22 H3           8.5390    -0.2840    21.4310 h1         1 SQ2       0.084700
     23 H4           9.8070    -0.7210    20.2650 h1         1 SQ2       0.084700
     24 H6           4.8820     3.0330    21.5180 ha         1 SQ2       0.114000
     25 H7          11.6900     2.6960    22.7950 h1         1 SQ2       0.057200
     26 H8          11.5390     1.6880    24.2380 h1         1 SQ2       0.057200
     27 H9          15.6020    -0.1360    23.7970 hc         1 SQ2       0.036367
     28 H10         15.0060    -1.7940    23.6470 hc         1 SQ2       0.036367
     29 H11         15.1550    -0.7750    22.2060 hc         1 SQ2       0.036367
     30 H12          6.9770     1.6870    21.8530 ha         1 SQ2       0.122000
     31 H13         13.5400     1.2770    21.9370 hc         1 SQ2       0.052950
     32 H14         13.9260     1.8620    23.5540 hc         1 SQ2       0.052950
     33 H15         13.2470    -0.3020    24.5630 hc         1 SQ2       0.044700
     34 H16         12.4640    -2.2120    23.1860 hc         1 SQ2       0.052950
     35 H17         12.6250    -1.2680    21.7070 hc         1 SQ2       0.052950
     36 H18          4.0310     3.4650    19.2070 ha         1 SQ2       0.117000
     37 H5           5.2680     2.5550    17.2160 ha         1 SQ2       0.133000
@<TRIPOS>BOND
     1     1     3 1   
     2     1     4 1   
     3     1     9 1   
     4     2    17 1   
     5     2    18 2   
     6     3    15 1   
     7     3    20 1   
     8     3    21 1   
     9     4     5 1   
    10     4    19 2   
    11     5    17 1   
    12     5    22 1   
    13     5    23 1   
    14     6     7 ar  
    15     6    12 ar  
    16     6    18 1   
    17     7    16 ar  
    18     7    37 1   
    19     8    11 ar  
    20     8    16 ar  
    21     8    24 1   
    22     9    13 1   
    23     9    25 1   
    24     9    26 1   
    25    10    14 1   
    26    10    27 1   
    27    10    28 1   
    28    10    29 1   
    29    11    12 ar  
    30    11    30 1   
    31    12    17 1   
    32    13    14 1   
    33    13    31 1   
    34    13    32 1   
    35    14    15 1   
    36    14    33 1   
    37    15    34 1   
    38    15    35 1   
    39    16    36 1   
@<TRIPOS>SUBSTRUCTURE
     1 SQ2         1 TEMP              0 ****  ****    0 ROOT
