@<TRIPOS>MOLECULE
SQ2
   37    39     1     0     0
SMALL
bcc


@<TRIPOS>ATOM
      1 N1          10.7330     0.6990    22.6970 n          1 SQ2      -0.469800
      2 N3           8.8270     0.3420    18.6450 nc         1 SQ2      -0.161400
      3 C4          10.9370    -0.6760    23.1280 c6         1 SQ2       0.094000
      4 C5           9.9940     1.0680    21.6370 c          1 SQ2       0.649100
      5 C6           9.1210    -0.0190    21.0000 c3         1 SQ2      -0.026700
      6 C7           7.1080     1.6150    18.5430 ca         1 SQ2       0.013400
      7 C8           6.0540     2.4380    18.1310 ca         1 SQ2      -0.046000
      8 C10          5.4470     2.6460    20.4780 ca         1 SQ2      -0.095000
      9 C13         11.6970     1.6230    23.2760 c6         1 SQ2       0.094000
     10 C1          14.7960    -0.6540    22.8070 c3         1 SQ2      -0.087100
     11 C11          6.4790     1.8380    20.8980 ca         1 SQ2      -0.124000
     12 C12          7.3060     1.3290    19.8940 ca         1 SQ2      -0.058200
     13 C14         13.1110     1.2220    22.8760 c6         1 SQ2      -0.100900
     14 C2          13.4140    -0.2230    23.2730 c6         1 SQ2      -0.060700
     15 C3          12.3280    -1.1540    22.7330 c6         1 SQ2      -0.100900
     16 C9           5.2350     2.9450    19.1140 ca         1 SQ2      -0.157000
     17 N2           8.3890     0.5160    19.8900 na         1 SQ2       0.102900
     18 N4           8.0810     0.9760    17.8280 nd         1 SQ2      -0.215400
     19 O1           9.9680     2.2010    21.1860 o          1 SQ2      -0.574100
     20 H1          10.8270    -0.7070    24.2160 h1         1 SQ2       0.057200
     21 H2          10.1690    -1.3310    22.7240 h1         1 SQ2       0.057200
     22 H3           8.4200    -0.4360    21.7260 h1         1 SQ2       0.084700
     23 H4           9.7260    -0.8440    20.6240 h1         1 SQ2       0.084700
     24 H6           4.7770     3.0700    21.2140 ha         1 SQ2       0.132000
     25 H7          11.4660     2.6370    22.9610 h1         1 SQ2       0.057200
     26 H8          11.5910     1.5830    24.3640 h1         1 SQ2       0.057200
     27 H9          15.5720    -0.0040    23.2130 hc         1 SQ2       0.036367
     28 H10         15.0180    -1.6750    23.1200 hc         1 SQ2       0.036367
     29 H11         14.8670    -0.6170    21.7170 hc         1 SQ2       0.036367
     30 H12          6.6370     1.6170    21.9460 ha         1 SQ2       0.140000
     31 H13         13.2280     1.3400    21.7940 hc         1 SQ2       0.052950
     32 H14         13.8260     1.9000    23.3490 hc         1 SQ2       0.052950
     33 H15         13.3820    -0.2800    24.3690 hc         1 SQ2       0.044700
     34 H16         12.4780    -2.1690    23.1100 hc         1 SQ2       0.052950
     35 H17         12.3940    -1.2050    21.6410 hc         1 SQ2       0.052950
     36 H18          4.4080     3.5870    18.8430 ha         1 SQ2       0.135000
     37 H5           5.8950     2.6660    17.0860 ha         1 SQ2       0.151000
@<TRIPOS>BOND
     1     1     3 1   
     2     1     4 1   
     3     1     9 1   
     4     2    17 1   
     5     2    18 2   
     6     3    15 1   
     7     3    20 1   
     8     3    21 1   
     9     4     5 1   
    10     4    19 2   
    11     5    17 1   
    12     5    22 1   
    13     5    23 1   
    14     6     7 ar  
    15     6    12 ar  
    16     6    18 1   
    17     7    16 ar  
    18     7    37 1   
    19     8    11 ar  
    20     8    16 ar  
    21     8    24 1   
    22     9    13 1   
    23     9    25 1   
    24     9    26 1   
    25    10    14 1   
    26    10    27 1   
    27    10    28 1   
    28    10    29 1   
    29    11    12 ar  
    30    11    30 1   
    31    12    17 1   
    32    13    14 1   
    33    13    31 1   
    34    13    32 1   
    35    14    15 1   
    36    14    33 1   
    37    15    34 1   
    38    15    35 1   
    39    16    36 1   
@<TRIPOS>SUBSTRUCTURE
     1 SQ2         1 TEMP              0 ****  ****    0 ROOT
