@<TRIPOS>MOLECULE
SQ4
   22    23     1     0     0
SMALL
bcc


@<TRIPOS>ATOM
      1 N1          21.3570   111.8580    14.3670 nv         1 SQ4      -0.831200
      2 C4          21.8010   112.9860    13.7270 ca         1 SQ4       0.172600
      3 C5          21.8900   113.0330    12.3290 ca         1 SQ4      -0.198000
      4 C6          22.3870   114.1540    11.6890 ca         1 SQ4      -0.064500
      5 C7          22.5870   117.5280    11.4550 c          1 SQ4       0.698200
      6 C8          23.5300   118.4700    10.7860 cc         1 SQ4      -0.184700
      7 N           23.3240   116.3970    11.7680 n          1 SQ4      -0.447600
      8 C           24.6390   116.5490    11.3570 c          1 SQ4       0.698200
      9 O           25.5140   115.7350    11.4940 o          1 SQ4      -0.541500
     10 C1          22.8110   115.2530    12.4240 ca         1 SQ4      -0.006400
     11 C2          22.7270   115.2200    13.8100 ca         1 SQ4      -0.064500
     12 C3          22.2270   114.1060    14.4560 ca         1 SQ4      -0.198000
     13 C9          24.7270   117.8990    10.7280 cd         1 SQ4      -0.184700
     14 H1          21.0050   111.9800    15.3030 hn         1 SQ4       0.400800
     15 H2          20.7960   111.2220    13.8240 hn         1 SQ4       0.400800
     16 H3          21.5620   112.1840    11.7420 ha         1 SQ4       0.134000
     17 H4          22.4420   114.1740    10.6080 ha         1 SQ4       0.137000
     18 H5          23.2280   119.4420    10.4280 ha         1 SQ4       0.175000
     19 H6          23.0550   116.0750    14.3890 ha         1 SQ4       0.137000
     20 H7          22.1670   114.0950    15.5380 ha         1 SQ4       0.134000
     21 H8          25.6420   118.2900    10.3110 ha         1 SQ4       0.175000
     22 O1          21.4180   117.6890    11.6900 o          1 SQ4      -0.541500
@<TRIPOS>BOND
     1     1     2 1   
     2     1    14 1   
     3     1    15 1   
     4     2     3 ar  
     5     2    12 ar  
     6     3     4 ar  
     7     3    16 1   
     8     4    10 ar  
     9     4    17 1   
    10     5     6 1   
    11     5     7 1   
    12     5    22 2   
    13     6    13 2   
    14     6    18 1   
    15     7     8 1   
    16     7    10 1   
    17     8     9 2   
    18     8    13 1   
    19    10    11 ar  
    20    11    12 ar  
    21    11    19 1   
    22    12    20 1   
    23    13    21 1   
@<TRIPOS>SUBSTRUCTURE
     1 SQ4         1 TEMP              0 ****  ****    0 ROOT
