@<TRIPOS>MOLECULE
SQ4
   22    23     1     0     0
SMALL
No Charge or Current Charge


@<TRIPOS>ATOM
      1 N1          21.2770   111.8900    14.3710 nv         1 SQ4      -1.080000
      2 C4          21.7790   112.9920    13.7360 ca         1 SQ4       0.311000
      3 C5          22.1930   112.9060    12.4010 ca         1 SQ4      -0.180000
      4 C6          22.7090   114.0390    11.7450 ca         1 SQ4      -0.046500
      5 C7          22.7810   117.7180    11.8550 c          1 SQ4       0.555700
      6 C8          23.6350   118.5660    11.0240 cc         1 SQ4      -0.234700
      7 N           23.3410   116.4340    11.7550 n          1 SQ4      -0.313600
      8 C           24.4750   116.4140    10.9270 c          1 SQ4       0.555700
      9 O           25.1840   115.4560    10.6570 o          1 SQ4      -0.466000
     10 C1          22.8130   115.2720    12.4240 ca         1 SQ4      -0.006400
     11 C2          22.3930   115.3470    13.7690 ca         1 SQ4      -0.046500
     12 C3          21.8790   114.2110    14.4190 ca         1 SQ4      -0.180000
     13 C9          24.6330   117.7990    10.4750 cd         1 SQ4      -0.234700
     14 H1          20.8370   111.9890    15.2830 hn         1 SQ4       0.456000
     15 H2          21.0620   111.0510    13.8350 hn         1 SQ4       0.456000
     16 H3          22.1160   111.9650    11.8650 ha         1 SQ4       0.116000
     17 H4          23.0140   113.9560    10.7050 ha         1 SQ4       0.119000
     18 H5          23.4480   119.6280    10.9020 ha         1 SQ4       0.225000
     19 H6          22.4750   116.2810    14.3190 ha         1 SQ4       0.119000
     20 H7          21.5630   114.2830    15.4560 ha         1 SQ4       0.116000
     21 H8          25.4400   118.0950     9.8130 ha         1 SQ4       0.225000
     22 O1          21.7880   118.0480    12.4860 o          1 SQ4      -0.466000
@<TRIPOS>BOND
     1     1     2 1   
     2     1    14 1   
     3     1    15 1   
     4     2     3 ar  
     5     2    12 ar  
     6     3     4 ar  
     7     3    16 1   
     8     4    10 ar  
     9     4    17 1   
    10     5     6 1   
    11     5     7 1   
    12     5    22 2   
    13     6    13 2   
    14     6    18 1   
    15     7     8 1   
    16     7    10 1   
    17     8     9 2   
    18     8    13 1   
    19    10    11 ar  
    20    11    12 ar  
    21    11    19 1   
    22    12    20 1   
    23    13    21 1   
@<TRIPOS>SUBSTRUCTURE
     1 SQ4         1 TEMP              0 ****  ****    0 ROOT
