@<TRIPOS>MOLECULE
SQ5
   39    41     1     0     0
SMALL
bcc


@<TRIPOS>ATOM
      1 C4          -2.9670    -0.1690    12.2580 c6         1 SQ5      -0.062700
      2 C14         -0.1280    -2.4850    19.2420 ca         1 SQ5       0.028600
      3 C5          -2.2100     0.5430    11.1350 c6         1 SQ5      -0.070400
      4 C6          -2.3520    -0.1810     9.8010 c6         1 SQ5      -0.073400
      5 C11         -0.8940    -1.4490    17.2690 ca         1 SQ5      -0.030700
      6 C7          -3.8180    -0.3610     9.4220 c6         1 SQ5      -0.075400
      7 C8          -4.5830    -1.0720    10.5330 c6         1 SQ5      -0.073400
      8 C9          -4.4350    -0.3450    11.8660 c6         1 SQ5      -0.070400
      9 C10         -2.3550    -1.1760    15.2990 c          1 SQ5       0.707500
     10 C12          0.3460    -1.7270    16.7060 ca         1 SQ5       0.398200
     11 C13          1.0790    -2.7400    18.6160 ca         1 SQ5       0.368200
     12 N1          -3.3130     0.7940    15.9690 ns         1 SQ5      -0.586900
     13 N2          -1.8710    -0.7700    16.5210 n          1 SQ5      -0.451600
     14 C3          -2.8040     0.6130    13.5600 c3         1 SQ5      -0.079400
     15 N3           1.3010    -2.3650    17.3640 nb         1 SQ5      -0.636000
     16 C1          -2.4510     0.4480    16.9360 c          1 SQ5       0.830500
     17 C15         -1.1490    -1.8420    18.5750 ca         1 SQ5      -0.124000
     18 C2          -3.3040    -0.0900    14.8290 c5         1 SQ5       0.028700
     19 O2          -2.0620    -2.1960    14.7290 o          1 SQ5      -0.556500
     20 H1          -2.5220    -1.1630    12.3770 hc         1 SQ5       0.070700
     21 H2          -1.1530     0.6340    11.4030 hc         1 SQ5       0.036950
     22 H3          -2.5940     1.5660    11.0370 hc         1 SQ5       0.036950
     23 H4          -1.8740    -1.1650     9.8730 hc         1 SQ5       0.042700
     24 H5          -1.8200     0.3660     9.0200 hc         1 SQ5       0.042700
     25 H6          -4.2680     0.6230     9.2450 hc         1 SQ5       0.039700
     26 H7          -3.9030    -0.9160     8.4850 hc         1 SQ5       0.039700
     27 H8          -5.6400    -1.1580    10.2710 hc         1 SQ5       0.042700
     28 H9          -4.2040    -2.0950    10.6350 hc         1 SQ5       0.042700
     29 H10         -4.9020     0.6450    11.7940 hc         1 SQ5       0.036950
     30 H11         -4.9830    -0.8900    12.6390 hc         1 SQ5       0.036950
     31 H12          0.5690    -1.4150    15.6930 h4         1 SQ5       0.034100
     32 H13          1.8770    -3.2520    19.1420 h4         1 SQ5       0.040100
     33 H14         -3.8220     1.6640    15.9910 hn         1 SQ5       0.353500
     34 H15         -1.7550     0.8860    13.7080 hc         1 SQ5       0.052200
     35 H16         -3.3560     1.5550    13.4760 hc         1 SQ5       0.052200
     36 H17         -2.1040    -1.6610    19.0510 ha         1 SQ5       0.169000
     37 H18         -4.2930    -0.5280    14.6700 h1         1 SQ5       0.094700
     38 O1          -2.1880     1.0140    17.9700 o          1 SQ5      -0.604500
     39 F1          -0.3060    -2.8740    20.5070 f          1 SQ5      -0.128900
@<TRIPOS>BOND
     1     1     3 1   
     2     1     8 1   
     3     1    14 1   
     4     1    20 1   
     5     2    11 ar  
     6     2    17 ar  
     7     2    39 1   
     8     3     4 1   
     9     3    21 1   
    10     3    22 1   
    11     4     6 1   
    12     4    23 1   
    13     4    24 1   
    14     5    10 ar  
    15     5    13 1   
    16     5    17 ar  
    17     6     7 1   
    18     6    25 1   
    19     6    26 1   
    20     7     8 1   
    21     7    27 1   
    22     7    28 1   
    23     8    29 1   
    24     8    30 1   
    25     9    13 1   
    26     9    18 1   
    27     9    19 2   
    28    10    15 ar  
    29    10    31 1   
    30    11    15 ar  
    31    11    32 1   
    32    12    16 1   
    33    12    18 1   
    34    12    33 1   
    35    13    16 1   
    36    14    18 1   
    37    14    34 1   
    38    14    35 1   
    39    16    38 2   
    40    17    36 1   
    41    18    37 1   
@<TRIPOS>SUBSTRUCTURE
     1 SQ5         1 TEMP              0 ****  ****    0 ROOT
