@<TRIPOS>MOLECULE
SQ5
   39    41     1     0     0
SMALL
No Charge or Current Charge


@<TRIPOS>ATOM
      1 C4          -2.9050    -0.0040    12.2350 c6         1 SQ5      -0.062700
      2 C14         -0.1250    -2.4840    19.3250 ca         1 SQ5       0.129000
      3 C5          -2.3910     0.8530    11.0430 c6         1 SQ5      -0.070400
      4 C6          -2.3810     0.0470     9.7210 c6         1 SQ5      -0.073400
      5 C11         -0.9360    -1.5140    17.2600 ca         1 SQ5      -0.058000
      6 C7          -3.7810    -0.5310     9.4080 c6         1 SQ5      -0.075400
      7 C8          -4.3020    -1.3920    10.5840 c6         1 SQ5      -0.073400
      8 C9          -4.3100    -0.5900    11.9100 c6         1 SQ5      -0.070400
      9 C10         -2.4030    -1.0600    15.2820 c          1 SQ5       0.565000
     10 C12          0.1350    -2.1730    16.6030 ca         1 SQ5       0.332900
     11 C13          0.9070    -3.0960    18.5860 ca         1 SQ5       0.302900
     12 N1          -3.2180     1.0160    16.0370 ns         1 SQ5      -0.519900
     13 N2          -1.8760    -0.6970    16.5220 n          1 SQ5      -0.225000
     14 C3          -2.8960     0.8260    13.5570 c3         1 SQ5      -0.079400
     15 N3           1.0450    -2.9470    17.2440 nb         1 SQ5      -0.636000
     16 C1          -2.3470     0.5280    16.9620 c          1 SQ5       0.621000
     17 C15         -1.0620    -1.6810    18.6570 ca         1 SQ5      -0.106000
     18 C2          -3.3370     0.1240    14.8700 c5         1 SQ5       0.028700
     19 O2          -2.1860    -2.1130    14.6940 o          1 SQ5      -0.481000
     20 H1          -2.2030    -0.8380    12.3750 hc         1 SQ5       0.070700
     21 H2          -1.3770     1.2190    11.2540 hc         1 SQ5       0.036950
     22 H3          -3.0240     1.7440    10.9230 hc         1 SQ5       0.036950
     23 H4          -1.6490    -0.7700     9.7910 hc         1 SQ5       0.042700
     24 H5          -2.0500     0.6910     8.8940 hc         1 SQ5       0.042700
     25 H6          -4.4850     0.2890     9.2100 hc         1 SQ5       0.039700
     26 H7          -3.7400    -1.1360     8.4920 hc         1 SQ5       0.039700
     27 H8          -5.3150    -1.7530    10.3610 hc         1 SQ5       0.042700
     28 H9          -3.6700    -2.2840    10.6970 hc         1 SQ5       0.042700
     29 H10         -5.0470     0.2230    11.8440 hc         1 SQ5       0.036950
     30 H11         -4.6460    -1.2510    12.7200 hc         1 SQ5       0.036950
     31 H12          0.2840    -2.0620    15.5290 h4         1 SQ5       0.034100
     32 H13          1.6460    -3.7240    19.0840 h4         1 SQ5       0.040100
     33 H14         -3.6570     1.9190    16.1820 hn         1 SQ5       0.353500
     34 H15         -1.8850     1.2270    13.7080 hc         1 SQ5       0.052200
     35 H16         -3.5350     1.7070    13.4160 hc         1 SQ5       0.052200
     36 H17         -1.8690    -1.2140    19.2150 ha         1 SQ5       0.151000
     37 H18         -4.3580    -0.2670    14.7690 h1         1 SQ5       0.094700
     38 O1          -2.0420     1.1060    17.9920 o          1 SQ5      -0.529000
     39 F1          -0.2190    -2.6680    20.6620 f          1 SQ5      -0.164000
@<TRIPOS>BOND
     1     1     3 1   
     2     1     8 1   
     3     1    14 1   
     4     1    20 1   
     5     2    11 ar  
     6     2    17 ar  
     7     2    39 1   
     8     3     4 1   
     9     3    21 1   
    10     3    22 1   
    11     4     6 1   
    12     4    23 1   
    13     4    24 1   
    14     5    10 ar  
    15     5    13 1   
    16     5    17 ar  
    17     6     7 1   
    18     6    25 1   
    19     6    26 1   
    20     7     8 1   
    21     7    27 1   
    22     7    28 1   
    23     8    29 1   
    24     8    30 1   
    25     9    13 1   
    26     9    18 1   
    27     9    19 2   
    28    10    15 ar  
    29    10    31 1   
    30    11    15 ar  
    31    11    32 1   
    32    12    16 1   
    33    12    18 1   
    34    12    33 1   
    35    13    16 1   
    36    14    18 1   
    37    14    34 1   
    38    14    35 1   
    39    16    38 2   
    40    17    36 1   
    41    18    37 1   
@<TRIPOS>SUBSTRUCTURE
     1 SQ5         1 TEMP              0 ****  ****    0 ROOT
