@<TRIPOS>MOLECULE
SQ6
   14    13     1     0     0
SMALL
abcg2


@<TRIPOS>ATOM
      1 N          114.8350   114.4690   124.4850 n7         1 SQ6      -0.858400
      2 CA         114.8800   113.1800   123.8280 c3         1 SQ6       0.030800
      3 C          115.0330   112.0000   124.8090 c          1 SQ6       0.701000
      4 O          114.7340   110.8760   124.3580 o          1 SQ6      -0.763250
      5 C1         115.0070   115.5840   123.5820 c3         1 SQ6       0.030800
      6 C2         116.4250   115.8330   123.0090 c          1 SQ6       0.701000
      7 O3         116.4880   116.6580   122.0740 o          1 SQ6      -0.763250
      8 O4         117.3770   115.2390   123.5530 o          1 SQ6      -0.763250
      9 H          115.5780   114.4840   125.1710 hn         1 SQ6       0.428000
     10 HA2        113.9650   113.0380   123.2440 h1         1 SQ6       0.004950
     11 HA3        115.7070   113.0930   123.1020 h1         1 SQ6       0.004950
     12 H6         114.7120   116.5070   124.1000 h1         1 SQ6       0.004950
     13 H7         114.2990   115.4860   122.7530 h1         1 SQ6       0.004950
     14 OXT        115.4790   112.2560   125.9460 o          1 SQ6      -0.763250
@<TRIPOS>BOND
     1     1     2 1   
     2     1     5 1   
     3     1     9 1   
     4     2     3 1   
     5     2    10 1   
     6     2    11 1   
     7     3     4 1   
     8     3    14 1   
     9     5     6 1   
    10     5    12 1   
    11     5    13 1   
    12     6     7 1   
    13     6     8 1   
@<TRIPOS>SUBSTRUCTURE
     1 SQ6         1 TEMP              0 ****  ****    0 ROOT
