@<TRIPOS>MOLECULE
SQ6
   14    13     1     0     0
SMALL
No Charge or Current Charge


@<TRIPOS>ATOM
      1 N          114.8440   114.4530   124.5100 n7         1 SQ6      -0.858400
      2 CA         114.9930   113.1340   123.8070 c3         1 SQ6       0.030800
      3 C          114.9530   111.8570   124.7360 c          1 SQ6       0.701000
      4 O          114.0340   111.0580   124.5990 o          1 SQ6      -0.763250
      5 C1         114.9630   115.6690   123.6370 c3         1 SQ6       0.030800
      6 C2         116.3880   115.9350   123.0050 c          1 SQ6       0.701000
      7 O3         116.5040   115.9210   121.7860 o          1 SQ6      -0.763250
      8 O4         117.3320   116.1360   123.7610 o          1 SQ6      -0.763250
      9 H          115.5840   114.5080   125.2260 hn         1 SQ6       0.428000
     10 HA2        114.2030   113.0300   123.0500 h1         1 SQ6       0.004950
     11 HA3        115.9520   113.1090   123.2710 h1         1 SQ6       0.004950
     12 H6         114.7070   116.5600   124.2270 h1         1 SQ6       0.004950
     13 H7         114.2300   115.6120   122.8200 h1         1 SQ6       0.004950
     14 OXT        115.8320   111.7210   125.5790 o          1 SQ6      -0.763250
@<TRIPOS>BOND
     1     1     2 1   
     2     1     5 1   
     3     1     9 1   
     4     2     3 1   
     5     2    10 1   
     6     2    11 1   
     7     3     4 1   
     8     3    14 1   
     9     5     6 1   
    10     5    12 1   
    11     5    13 1   
    12     6     7 1   
    13     6     8 1   
@<TRIPOS>SUBSTRUCTURE
     1 SQ6         1 TEMP              0 ****  ****    0 ROOT
