@<TRIPOS>MOLECULE
SQ7
   19    20     1     0     0
SMALL
No Charge or Current Charge


@<TRIPOS>ATOM
      1 N1          23.7850   118.6400    11.4980 nc         1 SQ7      -0.550100
      2 C4          22.9950   117.7230    12.1510 c          1 SQ7       0.671400
      3 C5          24.7210   117.9740    10.8380 cd         1 SQ7       0.415200
      4 C6          24.5850   116.5180    11.0360 c          1 SQ7       0.425700
      5 C7          22.4890   115.1220    13.7260 ca         1 SQ7      -0.087500
      6 C8          21.9380   113.9250    14.2190 ca         1 SQ7      -0.094000
      7 N           23.4760   116.4380    11.8760 n          1 SQ7      -0.335600
      8 C           21.8030   112.8130    13.3740 ca         1 SQ7       0.124000
      9 O           22.0250   117.9950    12.8380 o          1 SQ7      -0.419000
     10 C1          22.2190   112.8940    12.0360 ca         1 SQ7      -0.094000
     11 C2          22.7720   114.0900    11.5420 ca         1 SQ7      -0.087500
     12 C3          22.9100   115.2150    12.3820 ca         1 SQ7       0.054600
     13 O1          25.2680   115.5970    10.6010 o          1 SQ7      -0.439000
     14 H1          25.4880   118.4400    10.2350 h4         1 SQ7       0.072800
     15 H2          22.5990   115.9690    14.3980 ha         1 SQ7       0.130500
     16 H3          21.6180   113.8590    15.2560 ha         1 SQ7       0.136000
     17 H4          22.1120   112.0330    11.3820 ha         1 SQ7       0.136000
     18 H5          23.0780   114.1410    10.5010 ha         1 SQ7       0.130500
     19 Cl          21.1130   111.3170    13.9900 cl         1 SQ7      -0.191000
@<TRIPOS>BOND
     1     1     2 1   
     2     1     3 2   
     3     2     7 1   
     4     2     9 2   
     5     3     4 1   
     6     3    14 1   
     7     4     7 1   
     8     4    13 2   
     9     5     6 ar  
    10     5    12 ar  
    11     5    15 1   
    12     6     8 ar  
    13     6    16 1   
    14     7    12 1   
    15     8    10 ar  
    16     8    19 1   
    17    10    11 ar  
    18    10    17 1   
    19    11    12 ar  
    20    11    18 1   
@<TRIPOS>SUBSTRUCTURE
     1 SQ7         1 TEMP              0 ****  ****    0 ROOT
