@<TRIPOS>MOLECULE
SQ7
   19    20     1     0     0
SMALL
abcg2


@<TRIPOS>ATOM
      1 N1          23.6900   118.5970    11.2980 nc         1 SQ7      -0.550100
      2 C4          22.8240   117.6300    11.8930 c          1 SQ7       0.671400
      3 C5          24.7410   117.9860    10.9460 cd         1 SQ7       0.415200
      4 C6          24.6840   116.5150    11.2770 c          1 SQ7       0.425700
      5 C7          22.6740   115.0610    13.7400 ca         1 SQ7      -0.087500
      6 C8          22.1300   113.8900    14.2410 ca         1 SQ7      -0.094000
      7 N           23.4490   116.3890    11.8680 n          1 SQ7      -0.335600
      8 C           21.8290   112.8560    13.3660 ca         1 SQ7       0.124000
      9 O           21.7420   117.8660    12.3340 o          1 SQ7      -0.419000
     10 C1          22.0550   112.9750    12.0040 ca         1 SQ7      -0.094000
     11 C2          22.5860   114.1560    11.5080 ca         1 SQ7      -0.087500
     12 C3          22.8950   115.1920    12.3770 ca         1 SQ7       0.054600
     13 O1          25.5030   115.6640    11.0800 o          1 SQ7      -0.439000
     14 H1          25.5880   118.4570    10.4640 h4         1 SQ7       0.072800
     15 H2          22.9280   115.8670    14.4170 ha         1 SQ7       0.130500
     16 H3          21.9530   113.7840    15.3020 ha         1 SQ7       0.136000
     17 H4          21.8160   112.1640    11.3310 ha         1 SQ7       0.136000
     18 H5          22.7480   114.2660    10.4440 ha         1 SQ7       0.130500
     19 CL          21.1580   111.3890    13.9890 cl         1 SQ7      -0.191000
@<TRIPOS>BOND
     1     1     2 1   
     2     1     3 2   
     3     2     7 1   
     4     2     9 2   
     5     3     4 1   
     6     3    14 1   
     7     4     7 1   
     8     4    13 2   
     9     5     6 ar  
    10     5    12 ar  
    11     5    15 1   
    12     6     8 ar  
    13     6    16 1   
    14     7    12 1   
    15     8    10 ar  
    16     8    19 1   
    17    10    11 ar  
    18    10    17 1   
    19    11    12 ar  
    20    11    18 1   
@<TRIPOS>SUBSTRUCTURE
     1 SQ7         1 TEMP              0 ****  ****    0 ROOT
