@<TRIPOS>MOLECULE
SQ8
   58    62     1     0     0
SMALL
No Charge or Current Charge


@<TRIPOS>ATOM
      1 C20        -33.2770    -4.2900    16.4250 ca         1 SQ8      -0.266800
      2 C21        -33.5800    -4.9730    17.6170 ca         1 SQ8       0.450900
      3 C22        -34.0340    -3.0350    18.7100 ca         1 SQ8       0.657900
      4 C24        -33.7670    -2.2580    17.5870 ca         1 SQ8      -0.299000
      5 C19        -33.4210    -2.9000    16.3860 ca         1 SQ8       0.194600
      6 N4         -34.4000    -2.5290    19.9190 nu         1 SQ8      -0.932100
      7 C17        -31.1040     2.4360    16.8550 c6         1 SQ8       0.089500
      8 O2         -31.7730     0.0740    16.7010 os         1 SQ8      -0.463500
      9 C12        -30.7420    -4.6330    12.2800 ca         1 SQ8      -0.084000
     10 C11        -30.2210    -5.3200    11.1720 ca         1 SQ8      -0.070000
     11 C13        -32.8000    -5.0390    15.2720 cc         1 SQ8      -0.019200
     12 C15        -32.2060     0.2390    15.3370 c6         1 SQ8       0.355300
     13 C16        -31.7010     2.5900    15.4240 c6         1 SQ8       0.138100
     14 C10        -30.2720    -8.6570     9.3740 ca         1 SQ8       0.129000
     15 O1         -32.7090     1.5810    15.1960 os         1 SQ8      -0.463500
     16 C9         -29.7300    -9.2570     8.2250 ca         1 SQ8      -0.116000
     17 N3         -33.9650    -4.3550    18.7500 nb         1 SQ8      -0.768000
     18 C8         -29.1940    -8.4220     7.2290 ca         1 SQ8      -0.139000
     19 C7         -29.2100    -7.0300     7.4200 ca         1 SQ8       0.328900
     20 C6         -30.2680    -7.2320     9.4940 cp         1 SQ8       0.376500
     21 C5         -30.8280    -6.5040    10.6870 cp         1 SQ8      -0.136500
     22 C2         -31.8930    -5.0940    12.9560 ca         1 SQ8      -0.002800
     23 N1         -33.0460    -2.1920    15.1970 n          1 SQ8      -0.276000
     24 C3         -32.5240    -6.2680    12.4640 ca         1 SQ8       0.123000
     25 C4         -31.9980    -6.9490    11.3520 ca         1 SQ8      -0.081000
     26 N2         -29.9780     3.3900    17.1000 n8         1 SQ8      -0.992200
     27 C1         -32.3750    -4.3460    14.1500 cd         1 SQ8      -0.178400
     28 C18        -30.6820     0.9490    17.0600 c6         1 SQ8       0.138100
     29 N          -29.7270    -6.4460     8.5260 nb         1 SQ8      -0.650000
     30 C          -32.5270    -2.8550    14.0610 c          1 SQ8       0.574200
     31 O          -32.2410    -2.2270    13.0480 o          1 SQ8      -0.546000
     32 Cl         -34.0570    -6.8690    13.1100 cl         1 SQ8      -0.203000
     33 H1         -33.4930    -6.0580    17.6720 h4         1 SQ8       0.019100
     34 H5         -33.8310    -1.1820    17.6660 ha         1 SQ8       0.140000
     35 H6         -34.4870    -3.2580    20.6220 hn         1 SQ8       0.507000
     36 H7         -31.9000     2.6690    17.5800 h1         1 SQ8       0.080700
     37 H8         -30.2190    -3.7480    12.6340 ha         1 SQ8       0.124000
     38 H9         -29.3240    -4.9340    10.6930 ha         1 SQ8       0.131000
     39 H10        -32.6850    -6.1200    15.3230 ha         1 SQ8       0.193000
     40 H13        -31.3770     0.0520    14.6360 h2         1 SQ8       0.047700
     41 H14        -30.9110     2.4850    14.6660 h1         1 SQ8       0.053450
     42 H15        -32.1560     3.5840    15.3090 h1         1 SQ8       0.053450
     43 H16        -29.7210   -10.3390     8.1150 ha         1 SQ8       0.138000
     44 H17        -28.7630    -8.8410     6.3240 ha         1 SQ8       0.129000
     45 H18        -28.7930    -6.3610     6.6670 h4         1 SQ8       0.026100
     46 H19        -32.5320    -7.8210    10.9840 ha         1 SQ8       0.135000
     47 H20        -29.6260     3.2640    18.0580 hn         1 SQ8       0.400000
     48 H21        -29.1740     3.1310    16.5130 hn         1 SQ8       0.400000
     49 H23        -29.8100     0.7070    16.4350 h1         1 SQ8       0.053450
     50 H24        -30.4120     0.7700    18.1100 h1         1 SQ8       0.053450
     51 C14        -33.3780    -0.7420    15.0520 c3         1 SQ8       0.098000
     52 C23        -34.3020    -1.1320    20.3690 c3         1 SQ8       0.220100
     53 F          -30.7560    -9.4550    10.3550 f          1 SQ8      -0.166000
     54 H2         -34.6510    -1.0380    21.4070 h1         1 SQ8       0.041033
     55 H3         -33.2610    -0.7840    20.3200 h1         1 SQ8       0.041033
     56 H4         -34.9190    -0.4780    19.7380 h1         1 SQ8       0.041033
     57 H11        -34.2210    -0.4790    15.6990 h1         1 SQ8       0.085200
     58 H12        -33.7270    -0.5510    14.0300 h1         1 SQ8       0.085200
@<TRIPOS>BOND
     1     1     2 ar  
     2     1     5 ar  
     3     1    11 1   
     4     2    17 ar  
     5     2    33 1   
     6     3     4 ar  
     7     3     6 1   
     8     3    17 ar  
     9     4     5 ar  
    10     4    34 1   
    11     5    23 1   
    12     6    35 1   
    13     6    52 1   
    14     7    13 1   
    15     7    26 1   
    16     7    28 1   
    17     7    36 1   
    18     8    12 1   
    19     8    28 1   
    20     9    10 ar  
    21     9    22 ar  
    22     9    37 1   
    23    10    21 ar  
    24    10    38 1   
    25    11    27 2   
    26    11    39 1   
    27    12    15 1   
    28    12    40 1   
    29    12    51 1   
    30    13    15 1   
    31    13    41 1   
    32    13    42 1   
    33    14    16 ar  
    34    14    20 ar  
    35    14    53 1   
    36    16    18 ar  
    37    16    43 1   
    38    18    19 ar  
    39    18    44 1   
    40    19    29 ar  
    41    19    45 1   
    42    20    21 1   
    43    20    29 ar  
    44    21    25 ar  
    45    22    24 ar  
    46    22    27 1   
    47    23    30 1   
    48    23    51 1   
    49    24    25 ar  
    50    24    32 1   
    51    25    46 1   
    52    26    47 1   
    53    26    48 1   
    54    27    30 1   
    55    28    49 1   
    56    28    50 1   
    57    30    31 2   
    58    51    57 1   
    59    51    58 1   
    60    52    54 1   
    61    52    55 1   
    62    52    56 1   
@<TRIPOS>SUBSTRUCTURE
     1 SQ8         1 TEMP              0 ****  ****    0 ROOT
