@<TRIPOS>MOLECULE
SQ8
   58    62     1     0     0
SMALL
abcg2


@<TRIPOS>ATOM
      1 C20        -33.0800    -4.3030    16.5760 ca         1 SQ8      -0.266800
      2 C21        -33.3030    -4.9460    17.7980 ca         1 SQ8       0.450900
      3 C22        -33.9310    -3.0230    18.8330 ca         1 SQ8       0.657900
      4 C24        -33.7430    -2.2690    17.6670 ca         1 SQ8      -0.299000
      5 C19        -33.3180    -2.9140    16.5120 ca         1 SQ8       0.194600
      6 N4         -34.3330    -2.4540    19.9820 nu         1 SQ8      -0.932100
      7 C17        -30.9650     2.1470    16.6360 c6         1 SQ8       0.089500
      8 O2         -31.7080    -0.1630    16.5840 os         1 SQ8      -0.463500
      9 C12        -30.6590    -4.6870    12.5220 ca         1 SQ8      -0.084000
     10 C11        -30.1450    -5.3290    11.4130 ca         1 SQ8      -0.070000
     11 C13        -32.6210    -4.9950    15.4310 cc         1 SQ8      -0.019200
     12 C15        -32.2630     0.0480    15.3250 c6         1 SQ8       0.355300
     13 C16        -31.6820     2.3030    15.3000 c6         1 SQ8       0.138100
     14 C10        -30.3780    -8.3780     9.3580 ca         1 SQ8       0.129000
     15 O1         -32.7290     1.3550    15.1800 os         1 SQ8      -0.463500
     16 C9         -29.8280    -8.9410     8.2260 ca         1 SQ8      -0.116000
     17 N3         -33.7160    -4.3550    18.8890 nb         1 SQ8      -0.768000
     18 C8         -29.1760    -8.1000     7.3400 ca         1 SQ8      -0.139000
     19 C7         -29.1040    -6.7490     7.6490 ca         1 SQ8       0.328900
     20 C6         -30.2910    -7.0100     9.5990 cp         1 SQ8       0.376500
     21 C5         -30.8570    -6.3590    10.7990 cp         1 SQ8      -0.136500
     22 C2         -31.8980    -5.0330    13.0620 ca         1 SQ8      -0.002800
     23 N1         -33.1330    -2.2740    15.3060 n          1 SQ8      -0.276000
     24 C3         -32.6050    -6.0480    12.4210 ca         1 SQ8       0.123000
     25 C4         -32.1000    -6.7120    11.3130 ca         1 SQ8      -0.081000
     26 N2         -29.8430     3.0620    16.6920 n8         1 SQ8      -0.992200
     27 C1         -32.4020    -4.3470    14.2650 cd         1 SQ8      -0.178400
     28 C18        -30.5860     0.6760    16.8030 c6         1 SQ8       0.138100
     29 N          -29.6410    -6.2280     8.7410 nb         1 SQ8      -0.650000
     30 C          -32.6590    -2.9190    14.1660 c          1 SQ8       0.574200
     31 O          -32.4900    -2.2870    13.1330 o          1 SQ8      -0.546000
     32 CL         -34.1820    -6.5030    12.9820 cl         1 SQ8      -0.203000
     33 H1         -33.1250    -6.0160    17.8610 h4         1 SQ8       0.019100
     34 H5         -33.8920    -1.2030    17.7010 ha         1 SQ8       0.140000
     35 H6         -34.4700    -3.0720    20.7630 hn         1 SQ8       0.507000
     36 H7         -31.6650     2.4190    17.4320 h1         1 SQ8       0.080700
     37 H8         -30.0780    -3.9070    12.9980 ha         1 SQ8       0.124000
     38 H9         -29.1770    -5.0420    11.0250 ha         1 SQ8       0.131000
     39 H10        -32.4310    -6.0590    15.5110 ha         1 SQ8       0.193000
     40 H13        -31.5020    -0.1570    14.5510 h2         1 SQ8       0.047700
     41 H14        -30.9630     2.1760    14.4770 h1         1 SQ8       0.053450
     42 H15        -32.1250     3.2950    15.2070 h1         1 SQ8       0.053450
     43 H16        -29.9020   -10.0060     8.0510 ha         1 SQ8       0.138000
     44 H17        -28.7290    -8.4850     6.4350 ha         1 SQ8       0.129000
     45 H18        -28.5920    -6.0620     6.9860 h4         1 SQ8       0.026100
     46 H19        -32.7050    -7.4740    10.8410 ha         1 SQ8       0.135000
     47 H20        -29.4350     3.0550    17.6180 hn         1 SQ8       0.400000
     48 H21        -29.1110     2.7560    16.0610 hn         1 SQ8       0.400000
     49 H23        -29.7810     0.4260    16.0960 h1         1 SQ8       0.053450
     50 H24        -30.2210     0.4730    17.8110 h1         1 SQ8       0.053450
     51 C14        -33.4650    -0.8660    15.1500 c3         1 SQ8       0.098000
     52 C23        -34.6440    -1.0590    20.1380 c3         1 SQ8       0.220100
     53 F          -30.9850    -9.1760    10.2460 f          1 SQ8      -0.166000
     54 H2         -34.9370    -0.8860    21.1700 h1         1 SQ8       0.041033
     55 H3         -33.7840    -0.4210    19.9220 h1         1 SQ8       0.041033
     56 H4         -35.4700    -0.7440    19.4950 h1         1 SQ8       0.041033
     57 H11        -34.2480    -0.5960    15.8570 h1         1 SQ8       0.085200
     58 H12        -33.8750    -0.7150    14.1540 h1         1 SQ8       0.085200
@<TRIPOS>BOND
     1     1     2 ar  
     2     1     5 ar  
     3     1    11 1   
     4     2    17 ar  
     5     2    33 1   
     6     3     4 ar  
     7     3     6 1   
     8     3    17 ar  
     9     4     5 ar  
    10     4    34 1   
    11     5    23 1   
    12     6    35 1   
    13     6    52 1   
    14     7    13 1   
    15     7    26 1   
    16     7    28 1   
    17     7    36 1   
    18     8    12 1   
    19     8    28 1   
    20     9    10 ar  
    21     9    22 ar  
    22     9    37 1   
    23    10    21 ar  
    24    10    38 1   
    25    11    27 2   
    26    11    39 1   
    27    12    15 1   
    28    12    40 1   
    29    12    51 1   
    30    13    15 1   
    31    13    41 1   
    32    13    42 1   
    33    14    16 ar  
    34    14    20 ar  
    35    14    53 1   
    36    16    18 ar  
    37    16    43 1   
    38    18    19 ar  
    39    18    44 1   
    40    19    29 ar  
    41    19    45 1   
    42    20    21 1   
    43    20    29 ar  
    44    21    25 ar  
    45    22    24 ar  
    46    22    27 1   
    47    23    30 1   
    48    23    51 1   
    49    24    25 ar  
    50    24    32 1   
    51    25    46 1   
    52    26    47 1   
    53    26    48 1   
    54    27    30 1   
    55    28    49 1   
    56    28    50 1   
    57    30    31 2   
    58    51    57 1   
    59    51    58 1   
    60    52    54 1   
    61    52    55 1   
    62    52    56 1   
@<TRIPOS>SUBSTRUCTURE
     1 SQ8         1 TEMP              0 ****  ****    0 ROOT
