@<TRIPOS>MOLECULE
SQA
   81    80     1     0     0
SMALL
abcg2


@<TRIPOS>ATOM
      1 C1           2.8300    -3.7560     5.3190 c3         1 SQA       0.151100
      2 N2           4.1780    -4.1690     5.0020 n3         1 SQA      -0.719600
      3 C3           5.1440    -3.0970     5.1580 c3         1 SQA       0.167800
      4 C4           5.0020    -1.9940     4.1210 c3         1 SQA      -0.083400
      5 C5           6.0740    -0.9130     4.2640 c3         1 SQA      -0.036200
      6 C6           5.9460     0.1200     3.1770 c2         1 SQA      -0.113400
      7 C7           5.3500     1.2870     3.4240 c2         1 SQA      -0.215200
      8 C8           4.9890     2.3440     2.4230 c3         1 SQA      -0.033200
      9 C9           3.7020     2.0020     1.6500 c3         1 SQA      -0.034200
     10 C10          2.5440     1.6110     2.5260 c2         1 SQA      -0.114400
     11 C11          2.0120     0.3890     2.4340 c2         1 SQA      -0.215200
     12 C12          0.8520    -0.1550     3.2130 c3         1 SQA      -0.034200
     13 C13         -0.5020     0.0840     2.5210 c3         1 SQA      -0.032200
     14 C14         -0.5450    -0.4990     1.1430 c2         1 SQA      -0.217200
     15 C15         -1.1280    -1.6350     0.7540 c2         1 SQA      -0.110400
     16 C16         -0.9850    -2.1110    -0.6660 c3         1 SQA      -0.036200
     17 C17         -0.2010    -3.4300    -0.7790 c3         1 SQA      -0.034200
     18 C18          1.1440    -3.3240    -0.1350 c2         1 SQA      -0.216200
     19 C19          1.6660    -4.0890     0.8270 c2         1 SQA      -0.112400
     20 C20          3.0430    -3.8090     1.3650 c3         1 SQA      -0.046200
     21 C21          4.1330    -4.6860     0.7260 c3         1 SQA      -0.033200
     22 C22          5.4250    -4.5590     1.4700 c2         1 SQA      -0.217200
     23 C23          6.5860    -4.0540     1.0490 c2         1 SQA      -0.125400
     24 C24          7.7610    -3.9610     1.9780 c3         1 SQA      -0.053900
     25 C25          4.5500    -5.3310     5.7760 c3         1 SQA       0.151100
     26 C26          6.4240    -0.3050     1.8210 c3         1 SQA      -0.056900
     27 C27          2.0630     2.6630     3.4820 c3         1 SQA      -0.052900
     28 C28         -1.9020    -2.5450     1.6590 c3         1 SQA      -0.053900
     29 C29          0.9790    -5.2660     1.4560 c3         1 SQA      -0.052900
     30 C30          6.8460    -3.5300    -0.3330 c3         1 SQA      -0.053900
     31 H1C1         2.7100    -3.4330     6.3660 h1         1 SQA       0.029533
     32 H1C2         2.1370    -4.5820     5.1450 h1         1 SQA       0.029533
     33 H1C3         2.5120    -2.9320     4.6810 h1         1 SQA       0.029533
     34 H3C1         6.1430    -3.5340     5.0530 h1         1 SQA       0.026700
     35 H3C2         5.1060    -2.6630     6.1750 h1         1 SQA       0.026700
     36 H4C1         5.0610    -2.4470     3.1290 hc         1 SQA       0.053700
     37 H4C2         4.0230    -1.5100     4.1820 hc         1 SQA       0.053700
     38 H5C1         5.9830    -0.4370     5.2440 hc         1 SQA       0.040700
     39 H5C2         7.0660    -1.3790     4.2320 hc         1 SQA       0.040700
     40 H7           5.0200     1.4700     4.4440 ha         1 SQA       0.166000
     41 H8C1         5.7910     2.4960     1.6940 hc         1 SQA       0.041700
     42 H8C2         4.8670     3.3010     2.9350 hc         1 SQA       0.041700
     43 H9C1         3.4280     2.8730     1.0420 hc         1 SQA       0.043200
     44 H9C2         3.9130     1.1880     0.9540 hc         1 SQA       0.043200
     45 H11          2.4400    -0.2870     1.6990 ha         1 SQA       0.169000
     46 H121         0.8130     0.2740     4.2170 hc         1 SQA       0.042700
     47 H122         0.9880    -1.2330     3.3410 hc         1 SQA       0.042700
     48 H131        -1.2950    -0.3220     3.1520 hc         1 SQA       0.042200
     49 H132        -0.6720     1.1640     2.4630 hc         1 SQA       0.042200
     50 H14          0.0190     0.0510     0.3940 ha         1 SQA       0.167000
     51 H161        -0.4770    -1.3450    -1.2580 hc         1 SQA       0.042200
     52 H162        -1.9730    -2.2570    -1.1170 hc         1 SQA       0.042200
     53 H171        -0.7830    -4.2490    -0.3540 hc         1 SQA       0.043200
     54 H172        -0.0880    -3.6630    -1.8430 hc         1 SQA       0.043200
     55 H18          1.7480    -2.4880    -0.4840 ha         1 SQA       0.164000
     56 H201         3.3070    -2.7580     1.2150 hc         1 SQA       0.052200
     57 H202         3.0590    -3.9760     2.4460 hc         1 SQA       0.052200
     58 H211         4.2350    -4.4250    -0.3290 hc         1 SQA       0.043200
     59 H212         3.8110    -5.7330     0.7530 hc         1 SQA       0.043200
     60 H22          5.3640    -4.8750     2.5100 ha         1 SQA       0.179000
     61 H241         8.6260    -4.5040     1.5850 hc         1 SQA       0.036367
     62 H242         7.5330    -4.3580     2.9670 hc         1 SQA       0.036367
     63 H243         8.0790    -2.9220     2.1020 hc         1 SQA       0.036367
     64 H251         5.5350    -5.6900     5.4710 h1         1 SQA       0.029533
     65 H252         3.8360    -6.1390     5.6030 h1         1 SQA       0.029533
     66 H253         4.5820    -5.1450     6.8620 h1         1 SQA       0.029533
     67 H261         6.3440     0.4770     1.0690 hc         1 SQA       0.040033
     68 H262         5.8530    -1.1670     1.4650 hc         1 SQA       0.040033
     69 H263         7.4690    -0.6250     1.8600 hc         1 SQA       0.040033
     70 H271         2.7900     2.8360     4.2810 hc         1 SQA       0.037033
     71 H272         1.9320     3.6190     2.9700 hc         1 SQA       0.037033
     72 H273         1.1160     2.4080     3.9550 hc         1 SQA       0.037033
     73 H281        -1.3410    -3.4600     1.8600 hc         1 SQA       0.037700
     74 H282        -2.8430    -2.8500     1.1950 hc         1 SQA       0.037700
     75 H283        -2.1370    -2.0950     2.6220 hc         1 SQA       0.037700
     76 H291         0.0380    -5.5300     0.9780 hc         1 SQA       0.036700
     77 H292         0.7710    -5.0620     2.5100 hc         1 SQA       0.036700
     78 H293         1.6190    -6.1510     1.4360 hc         1 SQA       0.036700
     79 H301         5.9770    -3.5790    -0.9860 hc         1 SQA       0.036367
     80 H302         7.1730    -2.4880    -0.2910 hc         1 SQA       0.036367
     81 H303         7.6560    -4.0880    -0.8110 hc         1 SQA       0.036367
@<TRIPOS>BOND
     1     1     2 1   
     2     1    31 1   
     3     1    32 1   
     4     1    33 1   
     5     2     3 1   
     6     2    25 1   
     7     3     4 1   
     8     3    34 1   
     9     3    35 1   
    10     4     5 1   
    11     4    36 1   
    12     4    37 1   
    13     5     6 1   
    14     5    38 1   
    15     5    39 1   
    16     6     7 2   
    17     6    26 1   
    18     7     8 1   
    19     7    40 1   
    20     8     9 1   
    21     8    41 1   
    22     8    42 1   
    23     9    10 1   
    24     9    43 1   
    25     9    44 1   
    26    10    11 2   
    27    10    27 1   
    28    11    12 1   
    29    11    45 1   
    30    12    13 1   
    31    12    46 1   
    32    12    47 1   
    33    13    14 1   
    34    13    48 1   
    35    13    49 1   
    36    14    15 2   
    37    14    50 1   
    38    15    16 1   
    39    15    28 1   
    40    16    17 1   
    41    16    51 1   
    42    16    52 1   
    43    17    18 1   
    44    17    53 1   
    45    17    54 1   
    46    18    19 2   
    47    18    55 1   
    48    19    20 1   
    49    19    29 1   
    50    20    21 1   
    51    20    56 1   
    52    20    57 1   
    53    21    22 1   
    54    21    58 1   
    55    21    59 1   
    56    22    23 2   
    57    22    60 1   
    58    23    24 1   
    59    23    30 1   
    60    24    61 1   
    61    24    62 1   
    62    24    63 1   
    63    25    64 1   
    64    25    65 1   
    65    25    66 1   
    66    26    67 1   
    67    26    68 1   
    68    26    69 1   
    69    27    70 1   
    70    27    71 1   
    71    27    72 1   
    72    28    73 1   
    73    28    74 1   
    74    28    75 1   
    75    29    76 1   
    76    29    77 1   
    77    29    78 1   
    78    30    79 1   
    79    30    80 1   
    80    30    81 1   
@<TRIPOS>SUBSTRUCTURE
     1 SQA         1 TEMP              0 ****  ****    0 ROOT
