@<TRIPOS>MOLECULE
SQA
   81    80     1     0     0
SMALL
No Charge or Current Charge


@<TRIPOS>ATOM
      1 C1           2.9860    -3.9280     5.3440 c3         1 SQA       0.151100
      2 N2           4.4110    -4.2870     5.1470 n3         1 SQA      -0.719600
      3 C3           5.3480    -3.1420     5.2800 c3         1 SQA       0.167800
      4 C4           5.1400    -2.0110     4.2480 c3         1 SQA      -0.083400
      5 C5           6.2220    -0.9140     4.3190 c3         1 SQA      -0.036200
      6 C6           5.9770     0.1880     3.3010 c2         1 SQA      -0.113400
      7 C7           5.3120     1.3130     3.6230 c2         1 SQA      -0.215200
      8 C8           4.9320     2.4590     2.7030 c3         1 SQA      -0.033200
      9 C9           3.7140     2.1240     1.8110 c3         1 SQA      -0.034200
     10 C10          2.5200     1.5720     2.5800 c2         1 SQA      -0.114400
     11 C11          2.1560     0.2770     2.4960 c2         1 SQA      -0.215200
     12 C12          0.9960    -0.4080     3.1970 c3         1 SQA      -0.034200
     13 C13         -0.3500    -0.2240     2.4600 c3         1 SQA      -0.032200
     14 C14         -0.3370    -0.8180     1.0590 c2         1 SQA      -0.217200
     15 C15         -1.1600    -1.7390     0.5160 c2         1 SQA      -0.110400
     16 C16         -0.9680    -2.2230    -0.9160 c3         1 SQA      -0.036200
     17 C17         -0.1750    -3.5460    -1.0140 c3         1 SQA      -0.034200
     18 C18          1.2250    -3.4280    -0.4290 c2         1 SQA      -0.216200
     19 C19          1.6690    -3.8530     0.7710 c2         1 SQA      -0.112400
     20 C20          3.1030    -3.6210     1.2230 c3         1 SQA      -0.046200
     21 C21          4.0010    -4.8670     1.0620 c3         1 SQA      -0.033200
     22 C22          5.3960    -4.6420     1.6140 c2         1 SQA      -0.217200
     23 C23          6.4550    -4.0980     0.9850 c2         1 SQA      -0.125400
     24 C24          7.7990    -3.9260     1.6680 c3         1 SQA      -0.053900
     25 C25          4.8120    -5.4360     5.9870 c3         1 SQA       0.151100
     26 C26          6.5140    -0.1470     1.9160 c3         1 SQA      -0.056900
     27 C27          1.8000     2.6300     3.4060 c3         1 SQA      -0.052900
     28 C28         -2.3480    -2.4010     1.2040 c3         1 SQA      -0.053900
     29 C29          0.8300    -4.5540     1.8340 c3         1 SQA      -0.052900
     30 C30          6.4580    -3.5770    -0.4440 c3         1 SQA      -0.053900
     31 H1C1         2.8210    -3.5240     6.3520 h1         1 SQA       0.029533
     32 H1C2         2.3450    -4.8110     5.2190 h1         1 SQA       0.029533
     33 H1C3         2.6560    -3.1800     4.6130 h1         1 SQA       0.029533
     34 H3C1         6.3770    -3.5090     5.1610 h1         1 SQA       0.026700
     35 H3C2         5.2750    -2.7150     6.2900 h1         1 SQA       0.026700
     36 H4C1         5.1390    -2.4430     3.2440 hc         1 SQA       0.053700
     37 H4C2         4.1610    -1.5430     4.3990 hc         1 SQA       0.053700
     38 H5C1         6.2170    -0.4940     5.3330 hc         1 SQA       0.040700
     39 H5C2         7.2160    -1.3580     4.1800 hc         1 SQA       0.040700
     40 H7           4.9500     1.4470     4.6430 ha         1 SQA       0.166000
     41 H8C1         5.7780     2.7370     2.0630 hc         1 SQA       0.041700
     42 H8C2         4.7080     3.3510     3.3000 hc         1 SQA       0.041700
     43 H9C1         3.4240     3.0190     1.2470 hc         1 SQA       0.043200
     44 H9C2         4.0360     1.3950     1.0570 hc         1 SQA       0.043200
     45 H11          2.7390    -0.4040     1.8730 ha         1 SQA       0.169000
     46 H121         0.8930    -0.0310     4.2210 hc         1 SQA       0.042700
     47 H122         1.2050    -1.4810     3.2960 hc         1 SQA       0.042700
     48 H131        -1.1380    -0.6540     3.0840 hc         1 SQA       0.042200
     49 H132        -0.5720     0.8480     2.3960 hc         1 SQA       0.042200
     50 H14          0.4730    -0.4210     0.4460 ha         1 SQA       0.167000
     51 H161        -0.4280    -1.4640    -1.4960 hc         1 SQA       0.042200
     52 H162        -1.9370    -2.3410    -1.4170 hc         1 SQA       0.042200
     53 H171        -0.7490    -4.3490    -0.5420 hc         1 SQA       0.043200
     54 H172        -0.1000    -3.8290    -2.0710 hc         1 SQA       0.043200
     55 H18          1.9190    -2.9220    -1.1010 ha         1 SQA       0.164000
     56 H201         3.5520    -2.8020     0.6470 hc         1 SQA       0.052200
     57 H202         3.1190    -3.2910     2.2670 hc         1 SQA       0.052200
     58 H211         4.0380    -5.1490     0.0040 hc         1 SQA       0.043200
     59 H212         3.5440    -5.7180     1.5820 hc         1 SQA       0.043200
     60 H22          5.4990    -4.9750     2.6480 ha         1 SQA       0.179000
     61 H241         8.5840    -4.4800     1.1400 hc         1 SQA       0.036367
     62 H242         7.7790    -4.2880     2.7030 hc         1 SQA       0.036367
     63 H243         8.0960    -2.8710     1.6970 hc         1 SQA       0.036367
     64 H251         5.8420    -5.7430     5.7590 h1         1 SQA       0.029533
     65 H252         4.1560    -6.2970     5.8060 h1         1 SQA       0.029533
     66 H253         4.7580    -5.1780     7.0540 h1         1 SQA       0.029533
     67 H261         6.3610     0.6620     1.1940 hc         1 SQA       0.040033
     68 H262         6.0240    -1.0380     1.5080 hc         1 SQA       0.040033
     69 H263         7.5920    -0.3450     1.9500 hc         1 SQA       0.040033
     70 H271         2.4500     3.0270     4.1950 hc         1 SQA       0.037033
     71 H272         1.4870     3.4720     2.7780 hc         1 SQA       0.037033
     72 H273         0.9000     2.2460     3.8960 hc         1 SQA       0.037033
     73 H281        -2.2500    -3.4920     1.2050 hc         1 SQA       0.037700
     74 H282        -3.2820    -2.1590     0.6820 hc         1 SQA       0.037700
     75 H283        -2.4770    -2.0940     2.2450 hc         1 SQA       0.037700
     76 H291        -0.2120    -4.6960     1.5370 hc         1 SQA       0.036700
     77 H292         0.8160    -3.9750     2.7650 hc         1 SQA       0.036700
     78 H293         1.2320    -5.5460     2.0680 hc         1 SQA       0.036700
     79 H301         5.4760    -3.6470    -0.9250 hc         1 SQA       0.036367
     80 H302         6.7550    -2.5220    -0.4760 hc         1 SQA       0.036367
     81 H303         7.1660    -4.1390    -1.0640 hc         1 SQA       0.036367
@<TRIPOS>BOND
     1     1     2 1   
     2     1    31 1   
     3     1    32 1   
     4     1    33 1   
     5     2     3 1   
     6     2    25 1   
     7     3     4 1   
     8     3    34 1   
     9     3    35 1   
    10     4     5 1   
    11     4    36 1   
    12     4    37 1   
    13     5     6 1   
    14     5    38 1   
    15     5    39 1   
    16     6     7 2   
    17     6    26 1   
    18     7     8 1   
    19     7    40 1   
    20     8     9 1   
    21     8    41 1   
    22     8    42 1   
    23     9    10 1   
    24     9    43 1   
    25     9    44 1   
    26    10    11 2   
    27    10    27 1   
    28    11    12 1   
    29    11    45 1   
    30    12    13 1   
    31    12    46 1   
    32    12    47 1   
    33    13    14 1   
    34    13    48 1   
    35    13    49 1   
    36    14    15 2   
    37    14    50 1   
    38    15    16 1   
    39    15    28 1   
    40    16    17 1   
    41    16    51 1   
    42    16    52 1   
    43    17    18 1   
    44    17    53 1   
    45    17    54 1   
    46    18    19 2   
    47    18    55 1   
    48    19    20 1   
    49    19    29 1   
    50    20    21 1   
    51    20    56 1   
    52    20    57 1   
    53    21    22 1   
    54    21    58 1   
    55    21    59 1   
    56    22    23 2   
    57    22    60 1   
    58    23    24 1   
    59    23    30 1   
    60    24    61 1   
    61    24    62 1   
    62    24    63 1   
    63    25    64 1   
    64    25    65 1   
    65    25    66 1   
    66    26    67 1   
    67    26    68 1   
    68    26    69 1   
    69    27    70 1   
    70    27    71 1   
    71    27    72 1   
    72    28    73 1   
    73    28    74 1   
    74    28    75 1   
    75    29    76 1   
    76    29    77 1   
    77    29    78 1   
    78    30    79 1   
    79    30    80 1   
    80    30    81 1   
@<TRIPOS>SUBSTRUCTURE
     1 SQA         1 TEMP              0 ****  ****    0 ROOT
