@<TRIPOS>MOLECULE
SQB
   64    68     1     0     0
SMALL
No Charge or Current Charge


@<TRIPOS>ATOM
      1 C7          13.2280    29.7460    14.2630 ca         1 SQB      -0.014800
      2 C8          11.9950    30.2690    13.7870 ca         1 SQB       0.121000
      3 C9          11.5010    29.8940    12.5250 ca         1 SQB      -0.078000
      4 C10         12.1950    28.9850    11.6900 cp         1 SQB      -0.118500
      5 C11         11.6680    28.5890    10.3360 cp         1 SQB       0.382500
      6 C12         10.2840    28.3170    10.0780 ca         1 SQB       0.101100
      7 C1          14.5230    31.1710    20.3740 ca         1 SQB       0.424900
      8 C2          12.7140    30.5240    19.1480 ca         1 SQB       0.206900
      9 C3          14.8650    30.8220    18.1360 ca         1 SQB       0.325900
     10 C4          13.5160    30.4880    17.9930 ca         1 SQB      -0.308800
     11 C5          12.9520    30.1180    16.7060 cc         1 SQB      -0.017200
     12 C6          13.7890    30.0720    15.6030 cd         1 SQB      -0.171400
     13 O2          17.8380    29.3550    18.5970 os         1 SQB      -0.458500
     14 O3          19.4770    30.5310    17.4360 os         1 SQB      -0.458500
     15 C           16.4290    31.8490    21.9480 c3         1 SQB       0.226100
     16 O            9.3820    28.3780    11.1290 os         1 SQB      -0.330100
     17 C13          7.9800    28.1010    10.9580 c3         1 SQB       0.145900
     18 C14          9.8860    27.9620     8.7710 ca         1 SQB      -0.164000
     19 C15         10.8750    27.8830     7.7760 ca         1 SQB      -0.124000
     20 C16         12.2160    28.1450     8.1100 ca         1 SQB       0.327300
     21 C17         13.3160    28.0650     7.0680 c3         1 SQB      -0.139400
     22 C18         13.4340    28.4900    12.1640 ca         1 SQB      -0.076000
     23 C19         13.9360    28.8610    13.4210 ca         1 SQB      -0.084000
     24 C20         15.2360    30.4710    15.7100 c          1 SQB       0.579200
     25 C22         18.1440    29.9940    17.3410 c6         1 SQB       0.358300
     26 C23         18.7000    28.2350    18.8870 c6         1 SQB       0.138600
     27 C24         20.1880    28.7020    18.9240 c6         1 SQB       0.095500
     28 C25         20.4850    29.5130    17.6260 c6         1 SQB       0.138600
     29 N1          13.2180    30.8660    20.3470 nb         1 SQB      -0.265000
     30 N2          15.3720    31.1720    19.3350 nb         1 SQB      -0.297000
     31 N3          12.6030    28.4860     9.3570 nb         1 SQB      -0.651000
     32 N4          15.7200    30.8060    16.9920 n          1 SQB      -0.358300
     33 N5          21.1420    27.5650    19.1070 n8         1 SQB      -1.007200
     34 Cl          11.0810    31.5040    14.6630 cl         1 SQB      -0.210000
     35 H1          10.5730    30.3430    12.1800 ha         1 SQB       0.135000
     36 H2          11.6540    30.2760    19.1150 h4         1 SQB       0.024100
     37 H3          11.9090    29.8200    16.6200 ha         1 SQB       0.194000
     38 H4          14.3510    31.5000    22.3810 hn         1 SQB       0.512000
     39 H5          16.5280    32.0790    23.0180 h1         1 SQB       0.046700
     40 H6          17.0900    31.0040    21.7140 h1         1 SQB       0.046700
     41 H7          16.7660    32.7230    21.3750 h1         1 SQB       0.046700
     42 H8           7.4530    28.2080    11.9140 h1         1 SQB       0.042700
     43 H9           7.5300    28.7990    10.2410 h1         1 SQB       0.042700
     44 H10          7.8260    27.0760    10.5980 h1         1 SQB       0.042700
     45 H11          8.8510    27.7450     8.5180 ha         1 SQB       0.122000
     46 H12         10.6080    27.6140     6.7570 ha         1 SQB       0.122000
     47 H13         14.2320    27.6300     7.4860 hc         1 SQB       0.050033
     48 H14         13.0140    27.4420     6.2180 hc         1 SQB       0.050033
     49 H15         13.5600    29.0620     6.6830 hc         1 SQB       0.050033
     50 H16         14.0070    27.7940    11.5540 ha         1 SQB       0.131000
     51 H17         14.8750    28.4240    13.7540 ha         1 SQB       0.122000
     52 H18         17.3040    31.8910    17.9490 h1         1 SQB       0.093200
     53 H19         17.4890    31.7180    16.2230 h1         1 SQB       0.093200
     54 H20         18.0650    29.2810    16.5060 h2         1 SQB       0.044700
     55 H21         18.5580    27.4650    18.1140 h1         1 SQB       0.050700
     56 H22         18.4120    27.8050    19.8570 h1         1 SQB       0.050700
     57 H23         20.3120    29.3820    19.7820 h1         1 SQB       0.079700
     58 H24         20.4910    28.8480    16.7510 h1         1 SQB       0.050700
     59 H25         21.4710    29.9940    17.6980 h1         1 SQB       0.050700
     60 H26         20.9160    27.0680    19.9790 hn         1 SQB       0.404000
     61 H27         20.9770    26.8570    18.3790 hn         1 SQB       0.404000
     62 N           15.0290    31.5190    21.6160 nu         1 SQB      -0.911100
     63 O1          15.9780    30.5120    14.7360 o          1 SQB      -0.533000
     64 C21         17.1650    31.1830    17.1240 c3         1 SQB       0.101000
@<TRIPOS>BOND
     1     1     2 ar  
     2     1    12 1   
     3     1    23 ar  
     4     2     3 ar  
     5     2    34 1   
     6     3     4 ar  
     7     3    35 1   
     8     4     5 1   
     9     4    22 ar  
    10     5     6 ar  
    11     5    31 ar  
    12     6    16 1   
    13     6    18 ar  
    14     7    29 ar  
    15     7    30 ar  
    16     7    62 1   
    17     8    10 ar  
    18     8    29 ar  
    19     8    36 1   
    20     9    10 ar  
    21     9    30 ar  
    22     9    32 1   
    23    10    11 1   
    24    11    12 2   
    25    11    37 1   
    26    12    24 1   
    27    13    25 1   
    28    13    26 1   
    29    14    25 1   
    30    14    28 1   
    31    15    39 1   
    32    15    40 1   
    33    15    41 1   
    34    15    62 1   
    35    16    17 1   
    36    17    42 1   
    37    17    43 1   
    38    17    44 1   
    39    18    19 ar  
    40    18    45 1   
    41    19    20 ar  
    42    19    46 1   
    43    20    21 1   
    44    20    31 ar  
    45    21    47 1   
    46    21    48 1   
    47    21    49 1   
    48    22    23 ar  
    49    22    50 1   
    50    23    51 1   
    51    24    32 1   
    52    24    63 2   
    53    25    54 1   
    54    25    64 1   
    55    26    27 1   
    56    26    55 1   
    57    26    56 1   
    58    27    28 1   
    59    27    33 1   
    60    27    57 1   
    61    28    58 1   
    62    28    59 1   
    63    32    64 1   
    64    33    60 1   
    65    33    61 1   
    66    38    62 1   
    67    52    64 1   
    68    53    64 1   
@<TRIPOS>SUBSTRUCTURE
     1 SQB         1 TEMP              0 ****  ****    0 ROOT
