@<TRIPOS>MOLECULE
SQB
   64    68     1     0     0
SMALL
abcg2


@<TRIPOS>ATOM
      1 C7          13.1830    29.7090    14.4480 ca         1 SQB      -0.014800
      2 C8          12.1090    30.3630    13.8500 ca         1 SQB       0.121000
      3 C9          11.6220    29.9960    12.6030 ca         1 SQB      -0.078000
      4 C10         12.2130    28.9510    11.9000 cp         1 SQB      -0.118500
      5 C11         11.7780    28.5430    10.5450 cp         1 SQB       0.382500
      6 C12         10.4310    28.5030    10.1480 ca         1 SQB       0.101100
      7 C1          14.5630    31.0010    20.5030 ca         1 SQB       0.424900
      8 C2          12.7620    30.2560    19.3730 ca         1 SQB       0.206900
      9 C3          14.7920    30.7690    18.2670 ca         1 SQB       0.325900
     10 C4          13.4650    30.3200    18.1650 ca         1 SQB      -0.308800
     11 C5          12.9360    29.9760    16.8990 cc         1 SQB      -0.017200
     12 C6          13.6930    30.0640    15.7830 cd         1 SQB      -0.171400
     13 O2          17.5870    29.2660    18.1570 os         1 SQB      -0.458500
     14 O3          19.1800    30.7880    17.4610 os         1 SQB      -0.458500
     15 C           16.4650    31.7590    21.8480 c3         1 SQB       0.226100
     16 O            9.4980    28.8420    11.0500 os         1 SQB      -0.330100
     17 C13          8.1370    28.8000    10.6720 c3         1 SQB       0.145900
     18 C14         10.1490    28.0920     8.8490 ca         1 SQB      -0.164000
     19 C15         11.1880    27.7300     8.0120 ca         1 SQB      -0.124000
     20 C16         12.4950    27.7740     8.4860 ca         1 SQB       0.327300
     21 C17         13.6550    27.3890     7.6180 c3         1 SQB      -0.139400
     22 C18         13.3040    28.3000    12.4800 ca         1 SQB      -0.076000
     23 C19         13.7730    28.6750    13.7220 ca         1 SQB      -0.084000
     24 C20         15.0800    30.5090    15.8670 c          1 SQB       0.579200
     25 C22         17.9370    30.2110    17.1950 c6         1 SQB       0.358300
     26 C23         18.5150    28.2060    18.2030 c6         1 SQB       0.138600
     27 C24         19.9290    28.7220    18.4690 c6         1 SQB       0.095500
     28 C25         20.2210    29.8340    17.4680 c6         1 SQB       0.138600
     29 N1          13.2780    30.5800    20.5290 nb         1 SQB      -0.265000
     30 N2          15.3260    31.1190    19.4220 nb         1 SQB      -0.297000
     31 N3          12.7530    28.1720     9.7230 nb         1 SQB      -0.651000
     32 N4          15.5520    30.8650    17.1320 n          1 SQB      -0.358300
     33 N5          20.9650    27.7150    18.3890 n8         1 SQB      -1.007200
     34 CL          11.3490    31.7050    14.6420 cl         1 SQB      -0.210000
     35 H1          10.8020    30.5560    12.1810 ha         1 SQB       0.135000
     36 H2          11.7290    29.9210    19.3720 h4         1 SQB       0.024100
     37 H3          11.9120    29.6260    16.8370 ha         1 SQB       0.194000
     38 H4          14.5120    31.2240    22.4880 hn         1 SQB       0.512000
     39 H5          16.6820    31.8030    22.9110 h1         1 SQB       0.046700
     40 H6          17.1650    31.0700    21.3760 h1         1 SQB       0.046700
     41 H7          16.6290    32.7510    21.4230 h1         1 SQB       0.046700
     42 H8           7.5670    29.1050    11.5450 h1         1 SQB       0.042700
     43 H9           7.9180    29.4890     9.8540 h1         1 SQB       0.042700
     44 H10          7.8230    27.7940    10.3850 h1         1 SQB       0.042700
     45 H11          9.1330    28.0390     8.4820 ha         1 SQB       0.122000
     46 H12         10.9770    27.4100     7.0010 ha         1 SQB       0.122000
     47 H13         14.5710    27.3410     8.2040 hc         1 SQB       0.050033
     48 H14         13.4970    26.4190     7.1460 hc         1 SQB       0.050033
     49 H15         13.8050    28.1120     6.8150 hc         1 SQB       0.050033
     50 H16         13.7850    27.4940    11.9430 ha         1 SQB       0.131000
     51 H17         14.6080    28.1410    14.1550 ha         1 SQB       0.122000
     52 H18         17.0260    31.8940    18.1520 h1         1 SQB       0.093200
     53 H19         17.1160    32.0170    16.3890 h1         1 SQB       0.093200
     54 H20         17.9660    29.7270    16.2020 h2         1 SQB       0.044700
     55 H21         18.5100    27.6450    17.2520 h1         1 SQB       0.050700
     56 H22         18.1880    27.5200    18.9870 h1         1 SQB       0.050700
     57 H23         19.9560    29.1550    19.4740 h1         1 SQB       0.079700
     58 H24         20.3520    29.4010    16.4630 h1         1 SQB       0.050700
     59 H25         21.1450    30.3500    17.7240 h1         1 SQB       0.050700
     60 H26         20.9040    27.0700    19.1640 hn         1 SQB       0.404000
     61 H27         20.8800    27.1700    17.5410 hn         1 SQB       0.404000
     62 N           15.1040    31.3180    21.6820 nu         1 SQB      -0.911100
     63 O1          15.8170    30.5850    14.9010 o          1 SQB      -0.533000
     64 C21         16.9230    31.3420    17.2210 c3         1 SQB       0.101000
@<TRIPOS>BOND
     1     1     2 ar  
     2     1    12 1   
     3     1    23 ar  
     4     2     3 ar  
     5     2    34 1   
     6     3     4 ar  
     7     3    35 1   
     8     4     5 1   
     9     4    22 ar  
    10     5     6 ar  
    11     5    31 ar  
    12     6    16 1   
    13     6    18 ar  
    14     7    29 ar  
    15     7    30 ar  
    16     7    62 1   
    17     8    10 ar  
    18     8    29 ar  
    19     8    36 1   
    20     9    10 ar  
    21     9    30 ar  
    22     9    32 1   
    23    10    11 1   
    24    11    12 2   
    25    11    37 1   
    26    12    24 1   
    27    13    25 1   
    28    13    26 1   
    29    14    25 1   
    30    14    28 1   
    31    15    39 1   
    32    15    40 1   
    33    15    41 1   
    34    15    62 1   
    35    16    17 1   
    36    17    42 1   
    37    17    43 1   
    38    17    44 1   
    39    18    19 ar  
    40    18    45 1   
    41    19    20 ar  
    42    19    46 1   
    43    20    21 1   
    44    20    31 ar  
    45    21    47 1   
    46    21    48 1   
    47    21    49 1   
    48    22    23 ar  
    49    22    50 1   
    50    23    51 1   
    51    24    32 1   
    52    24    63 2   
    53    25    54 1   
    54    25    64 1   
    55    26    27 1   
    56    26    55 1   
    57    26    56 1   
    58    27    28 1   
    59    27    33 1   
    60    27    57 1   
    61    28    58 1   
    62    28    59 1   
    63    32    64 1   
    64    33    60 1   
    65    33    61 1   
    66    38    62 1   
    67    52    64 1   
    68    53    64 1   
@<TRIPOS>SUBSTRUCTURE
     1 SQB         1 TEMP              0 ****  ****    0 ROOT
