@<TRIPOS>MOLECULE
SQC
   45    48     1     0     0
SMALL
No Charge or Current Charge


@<TRIPOS>ATOM
      1 C02        182.9960   163.2430   232.4270 c          1 SQC       0.502300
      2 C03        183.0930   164.5960   233.0080 cc         1 SQC      -0.224400
      3 C04        183.1860   165.9620   232.4980 ca         1 SQC      -0.048800
      4 C05        183.8530   166.9680   233.2220 ca         1 SQC      -0.063500
      5 C06        183.9340   168.2760   232.7100 ca         1 SQC      -0.177500
      6 C07        183.3590   168.5990   231.4660 ca         1 SQC       0.322000
      7 C09        183.9630   170.1410   229.5530 c6         1 SQC       0.175800
      8 C10        183.4960   171.5040   228.9570 c6         1 SQC       0.143600
      9 C12        183.1130   172.4240   231.1470 c6         1 SQC       0.143600
     10 C13        183.5640   171.1030   231.8410 c6         1 SQC       0.175800
     11 C14        182.7010   167.5870   230.7430 ca         1 SQC      -0.177500
     12 C15        182.6180   166.2780   231.2510 ca         1 SQC      -0.063500
     13 C16        183.0120   164.1230   234.3070 cd         1 SQC       0.103800
     14 C18        182.7170   164.0420   236.8410 c3         1 SQC       0.169500
     15 C19        181.2360   164.0570   237.2490 ca         1 SQC       0.300300
     16 C20        180.6700   165.2060   237.8370 ca         1 SQC      -0.150000
     17 C21        179.3120   165.2000   238.1970 ca         1 SQC      -0.071000
     18 C22        178.5690   164.0340   237.9520 ca         1 SQC      -0.154000
     19 C23        179.2040   162.9290   237.3620 ca         1 SQC       0.343900
     20 C25        182.9140   162.6970   233.8740 c          1 SQC       0.469300
     21 N08        183.4310   169.9110   230.9380 nh         1 SQC      -0.807400
     22 N17        182.9680   164.7320   235.5490 nu         1 SQC      -0.762200
     23 N24        180.5130   162.9310   237.0140 nb         1 SQC      -0.656000
     24 O01        182.9770   162.7530   231.2980 o          1 SQC      -0.499100
     25 O11        183.7770   172.5900   229.8720 os         1 SQC      -0.450000
     26 O26        182.8060   161.5870   234.3990 o          1 SQC      -0.464100
     27 H2         184.3280   166.7390   234.1710 ha         1 SQC       0.111500
     28 H3         184.4640   169.0310   233.2830 ha         1 SQC       0.111000
     29 H4         183.6430   169.3410   228.8700 h1         1 SQC       0.049950
     30 H5         185.0630   170.1240   229.5710 h1         1 SQC       0.049950
     31 H6         182.4150   171.4710   228.7570 h1         1 SQC       0.055200
     32 H7         184.0120   171.6910   228.0050 h1         1 SQC       0.055200
     33 H8         183.3490   173.2820   231.7920 h1         1 SQC       0.055200
     34 H9         182.0250   172.4080   230.9890 h1         1 SQC       0.055200
     35 H10        184.6100   171.2150   232.1630 h1         1 SQC       0.049950
     36 H11        182.9550   170.9650   232.7460 h1         1 SQC       0.049950
     37 H12        182.2400   167.8150   229.7880 ha         1 SQC       0.111000
     38 H13        182.1020   165.5120   230.6770 ha         1 SQC       0.111500
     39 H14        183.0630   163.0010   236.7890 h1         1 SQC       0.078700
     40 H15        183.2990   164.5250   237.6370 h1         1 SQC       0.078700
     41 H16        181.2780   166.0900   238.0090 ha         1 SQC       0.123000
     42 H17        178.8500   166.0730   238.6530 ha         1 SQC       0.123000
     43 H18        177.5160   163.9810   238.2120 ha         1 SQC       0.128000
     44 H19        178.6500   162.0130   237.1610 h4         1 SQC       0.027100
     45 H1         182.9250   165.7550   235.5430 hn         1 SQC       0.496000
@<TRIPOS>BOND
     1     1     2 1   
     2     1    20 1   
     3     1    24 2   
     4     2     3 1   
     5     2    13 2   
     6     3     4 ar  
     7     3    12 ar  
     8     4     5 ar  
     9     4    27 1   
    10     5     6 ar  
    11     5    28 1   
    12     6    11 ar  
    13     6    21 1   
    14     7     8 1   
    15     7    21 1   
    16     7    29 1   
    17     7    30 1   
    18     8    25 1   
    19     8    31 1   
    20     8    32 1   
    21     9    10 1   
    22     9    25 1   
    23     9    33 1   
    24     9    34 1   
    25    10    21 1   
    26    10    35 1   
    27    10    36 1   
    28    11    12 ar  
    29    11    37 1   
    30    12    38 1   
    31    13    20 1   
    32    13    22 1   
    33    14    15 1   
    34    14    22 1   
    35    14    39 1   
    36    14    40 1   
    37    15    16 ar  
    38    15    23 ar  
    39    16    17 ar  
    40    16    41 1   
    41    17    18 ar  
    42    17    42 1   
    43    18    19 ar  
    44    18    43 1   
    45    19    23 ar  
    46    19    44 1   
    47    20    26 2   
    48    22    45 1   
@<TRIPOS>SUBSTRUCTURE
     1 SQC         1 TEMP              0 ****  ****    0 ROOT
