@<TRIPOS>MOLECULE
SQC
   45    48     1     0     0
SMALL
abcg2


@<TRIPOS>ATOM
      1 C02        182.8860   163.4660   232.5270 c          1 SQC       0.502300
      2 C03        182.9990   164.7930   233.1440 cc         1 SQC      -0.224400
      3 C04        183.1190   166.1020   232.5810 ca         1 SQC      -0.048800
      4 C05        183.3360   167.2570   233.3520 ca         1 SQC      -0.063500
      5 C06        183.4450   168.5050   232.7740 ca         1 SQC      -0.177500
      6 C07        183.3300   168.6820   231.3760 ca         1 SQC       0.322000
      7 C09        183.8570   170.0820   229.4200 c6         1 SQC       0.175800
      8 C10        183.4000   171.4010   228.8250 c6         1 SQC       0.143600
      9 C12        183.2250   172.3790   230.9290 c6         1 SQC       0.143600
     10 C13        183.6690   171.1030   231.6250 c6         1 SQC       0.175800
     11 C14        183.1340   167.5160   230.6000 ca         1 SQC      -0.177500
     12 C15        183.0300   166.2750   231.1850 ca         1 SQC      -0.063500
     13 C16        182.9360   164.2530   234.4480 cd         1 SQC       0.103800
     14 C18        182.7100   163.9350   236.8650 c3         1 SQC       0.169500
     15 C19        181.2630   164.0070   237.2980 ca         1 SQC       0.300300
     16 C20        180.9130   164.4710   238.5630 ca         1 SQC      -0.150000
     17 C21        179.5690   164.5100   238.9150 ca         1 SQC      -0.071000
     18 C22        178.6230   164.0910   237.9900 ca         1 SQC      -0.154000
     19 C23        179.0660   163.6480   236.7480 ca         1 SQC       0.343900
     20 C25        182.8450   162.8570   233.9250 c          1 SQC       0.469300
     21 N08        183.3800   169.9340   230.7980 nh         1 SQC      -0.807400
     22 N17        182.9640   164.7410   235.6740 nu         1 SQC      -0.762200
     23 N24        180.3540   163.6030   236.4040 nb         1 SQC      -0.656000
     24 O01        182.8380   163.0210   231.3920 o          1 SQC      -0.499100
     25 O11        183.7950   172.5050   229.6330 os         1 SQC      -0.450000
     26 O26        182.7850   161.7470   234.4080 o          1 SQC      -0.464100
     27 H2         183.4560   167.1880   234.4240 ha         1 SQC       0.111500
     28 H3         183.6370   169.3470   233.4200 ha         1 SQC       0.111000
     29 H4         183.4730   169.2820   228.7950 h1         1 SQC       0.049950
     30 H5         184.9550   170.0300   229.4030 h1         1 SQC       0.049950
     31 H6         182.3090   171.4010   228.7130 h1         1 SQC       0.055200
     32 H7         183.8570   171.5410   227.8460 h1         1 SQC       0.055200
     33 H8         183.5490   173.2430   231.5080 h1         1 SQC       0.055200
     34 H9         182.1300   172.3930   230.8500 h1         1 SQC       0.055200
     35 H10        184.7410   171.1560   231.8570 h1         1 SQC       0.049950
     36 H11        183.1210   171.0360   232.5630 h1         1 SQC       0.049950
     37 H12        183.0430   167.5820   229.5270 ha         1 SQC       0.111000
     38 H13        182.8710   165.4070   230.5600 ha         1 SQC       0.111500
     39 H14        182.9720   162.9040   236.6340 h1         1 SQC       0.078700
     40 H15        183.3600   164.2870   237.6640 h1         1 SQC       0.078700
     41 H16        181.6800   164.7950   239.2530 ha         1 SQC       0.123000
     42 H17        179.2680   164.8660   239.8920 ha         1 SQC       0.123000
     43 H18        177.5660   164.1050   238.2180 ha         1 SQC       0.128000
     44 H19        178.3550   163.3150   236.0000 h4         1 SQC       0.027100
     45 H1         182.9580   165.7430   235.8040 hn         1 SQC       0.496000
@<TRIPOS>BOND
     1     1     2 1   
     2     1    20 1   
     3     1    24 2   
     4     2     3 1   
     5     2    13 2   
     6     3     4 ar  
     7     3    12 ar  
     8     4     5 ar  
     9     4    27 1   
    10     5     6 ar  
    11     5    28 1   
    12     6    11 ar  
    13     6    21 1   
    14     7     8 1   
    15     7    21 1   
    16     7    29 1   
    17     7    30 1   
    18     8    25 1   
    19     8    31 1   
    20     8    32 1   
    21     9    10 1   
    22     9    25 1   
    23     9    33 1   
    24     9    34 1   
    25    10    21 1   
    26    10    35 1   
    27    10    36 1   
    28    11    12 ar  
    29    11    37 1   
    30    12    38 1   
    31    13    20 1   
    32    13    22 1   
    33    14    15 1   
    34    14    22 1   
    35    14    39 1   
    36    14    40 1   
    37    15    16 ar  
    38    15    23 ar  
    39    16    17 ar  
    40    16    41 1   
    41    17    18 ar  
    42    17    42 1   
    43    18    19 ar  
    44    18    43 1   
    45    19    23 ar  
    46    19    44 1   
    47    20    26 2   
    48    22    45 1   
@<TRIPOS>SUBSTRUCTURE
     1 SQC         1 TEMP              0 ****  ****    0 ROOT
