@<TRIPOS>MOLECULE
SQE
   60    64     1     0     0
SMALL
abcg2


@<TRIPOS>ATOM
      1 C13        -27.7530    -5.6470     7.0830 c3         1 SQE       0.136000
      2 C12        -28.7400    -6.5520     7.7650 ca         1 SQE       0.271300
      3 C10        -30.6240    -6.1330    10.8270 cp         1 SQE      -0.138500
      4 C7         -31.5620    -4.9270    13.2000 ca         1 SQE      -0.004800
      5 C4         -32.5360    -4.2760    16.7910 ca         1 SQE      -0.312800
      6 C3         -32.9640    -2.9400    16.7160 ca         1 SQE       0.326900
      7 C2         -32.6190    -4.8590    18.0600 ca         1 SQE       0.208900
      8 C1         -33.4520    -2.9500    18.9250 ca         1 SQE       0.427900
      9 N          -33.8970    -2.2940    19.9980 nu         1 SQE      -0.909100
     10 C          -34.3320    -0.9200    19.9680 c3         1 SQE       0.225100
     11 C11        -30.1250    -6.7500     9.5790 cp         1 SQE       0.414500
     12 C14        -29.1220    -7.7770     7.2430 ca         1 SQE      -0.121000
     13 C15        -30.0540    -8.5120     7.9600 ca         1 SQE      -0.077000
     14 C16        -30.5620    -8.0020     9.1410 ca         1 SQE      -0.136000
     15 C17        -29.8940    -5.1200    11.4520 ca         1 SQE      -0.069000
     16 C18        -30.3600    -4.5350    12.6130 ca         1 SQE      -0.084000
     17 C19        -32.4550    -2.8960    14.3450 c          1 SQE       0.577200
     18 C21        -32.1900     0.0730    15.4760 c6         1 SQE       0.359300
     19 C22        -30.3540     0.7290    16.7310 c6         1 SQE       0.137600
     20 C23        -30.8440     2.1760    16.7290 c6         1 SQE       0.090500
     21 C24        -31.7590     2.3630    15.5240 c6         1 SQE       0.137600
     22 C5         -32.0740    -4.9340    15.6270 cc         1 SQE      -0.013200
     23 C6         -32.0310    -4.2850    14.4420 cd         1 SQE      -0.179400
     24 C8         -32.2820    -5.9320    12.5600 ca         1 SQE       0.125000
     25 C9         -31.8300    -6.5300    11.3950 ca         1 SQE      -0.092000
     26 F          -28.4180    -4.5930     6.5290 f          1 SQE      -0.116500
     27 F1         -27.1240    -6.2880     6.0660 f          1 SQE      -0.116500
     28 N1         -33.0570    -4.2300    19.1190 nb         1 SQE      -0.264000
     29 N2         -33.4290    -2.2950    17.7670 nb         1 SQE      -0.296000
     30 N3         -29.2210    -6.0580     8.8950 nb         1 SQE      -0.659000
     31 N4         -32.9150    -2.2900    15.5110 n          1 SQE      -0.356300
     32 N5         -29.7870     3.1660    16.6940 n8         1 SQE      -0.993200
     33 O1         -31.4400    -0.1720    16.6230 os         1 SQE      -0.458500
     34 O2         -32.7490     1.3520    15.4860 os         1 SQE      -0.458500
     35 CL         -33.8080    -6.4470    13.2000 cl         1 SQE      -0.201000
     36 H1         -27.0040    -5.2550     7.7710 h2         1 SQE       0.077700
     37 H2         -32.3060    -5.8910    18.1930 h4         1 SQE       0.024100
     38 H3         -33.9120    -2.7970    20.8690 hn         1 SQE       0.514000
     39 H4         -34.5680    -0.6160    20.9830 h1         1 SQE       0.047367
     40 H5         -33.5530    -0.2640    19.5780 h1         1 SQE       0.047367
     41 H6         -35.2210    -0.7890    19.3490 h1         1 SQE       0.047367
     42 H7         -28.7110    -8.1560     6.3190 ha         1 SQE       0.141000
     43 H8         -30.3770    -9.4810     7.6050 ha         1 SQE       0.125000
     44 H9         -31.2700    -8.5820     9.7150 ha         1 SQE       0.129000
     45 H10        -28.9540    -4.7980    11.0270 ha         1 SQE       0.137000
     46 H11        -29.7730    -3.7600    13.0890 ha         1 SQE       0.125000
     47 H12        -34.0300    -0.7110    16.2500 h1         1 SQE       0.094200
     48 H13        -33.8970    -0.7670    14.4900 h1         1 SQE       0.094200
     49 H14        -31.5400    -0.0320    14.5890 h2         1 SQE       0.042700
     50 H15        -29.6490     0.5830    15.8960 h1         1 SQE       0.051450
     51 H16        -29.8260     0.4930    17.6570 h1         1 SQE       0.051450
     52 H17        -31.4340     2.3420    17.6360 h1         1 SQE       0.081700
     53 H18        -31.1610     2.3430    14.5990 h1         1 SQE       0.051450
     54 H19        -32.2720     3.3240    15.5670 h1         1 SQE       0.051450
     55 H20        -31.7540    -5.9680    15.7010 ha         1 SQE       0.193000
     56 H21        -32.4440    -7.2870    10.9270 ha         1 SQE       0.127000
     57 H22        -29.2370     3.1180    17.5420 hn         1 SQE       0.399000
     58 H23        -29.1470     2.9700    15.9320 hn         1 SQE       0.399000
     59 O          -32.4250    -2.2650    13.2990 o          1 SQE      -0.535000
     60 C20        -33.3530    -0.9040    15.4220 c3         1 SQE       0.102000
@<TRIPOS>BOND
     1     1     2 1   
     2     1    26 1   
     3     1    27 1   
     4     1    36 1   
     5     2    12 ar  
     6     2    30 ar  
     7     3    11 1   
     8     3    15 ar  
     9     3    25 ar  
    10     4    16 ar  
    11     4    23 1   
    12     4    24 ar  
    13     5     6 ar  
    14     5     7 ar  
    15     5    22 1   
    16     6    29 ar  
    17     6    31 1   
    18     7    28 ar  
    19     7    37 1   
    20     8     9 1   
    21     8    28 ar  
    22     8    29 ar  
    23     9    10 1   
    24     9    38 1   
    25    10    39 1   
    26    10    40 1   
    27    10    41 1   
    28    11    14 ar  
    29    11    30 ar  
    30    12    13 ar  
    31    12    42 1   
    32    13    14 ar  
    33    13    43 1   
    34    14    44 1   
    35    15    16 ar  
    36    15    45 1   
    37    16    46 1   
    38    17    23 1   
    39    17    31 1   
    40    17    59 2   
    41    18    33 1   
    42    18    34 1   
    43    18    49 1   
    44    18    60 1   
    45    19    20 1   
    46    19    33 1   
    47    19    50 1   
    48    19    51 1   
    49    20    21 1   
    50    20    32 1   
    51    20    52 1   
    52    21    34 1   
    53    21    53 1   
    54    21    54 1   
    55    22    23 2   
    56    22    55 1   
    57    24    25 ar  
    58    24    35 1   
    59    25    56 1   
    60    31    60 1   
    61    32    57 1   
    62    32    58 1   
    63    47    60 1   
    64    48    60 1   
@<TRIPOS>SUBSTRUCTURE
     1 SQE         1 TEMP              0 ****  ****    0 ROOT
