@<TRIPOS>MOLECULE
SQE
   60    64     1     0     0
SMALL
No Charge or Current Charge


@<TRIPOS>ATOM
      1 C13        -28.3110    -5.7610     6.4120 c3         1 SQE       0.136000
      2 C12        -28.9480    -6.7120     7.4250 ca         1 SQE       0.271300
      3 C10        -30.5550    -6.2640    10.7250 cp         1 SQE      -0.138500
      4 C7         -31.5620    -4.9510    13.0820 ca         1 SQE      -0.004800
      5 C4         -32.7000    -4.2510    16.6540 ca         1 SQE      -0.312800
      6 C3         -33.0120    -2.8890    16.6150 ca         1 SQE       0.326900
      7 C2         -32.8830    -4.9220    17.8770 ca         1 SQE       0.208900
      8 C1         -33.6120    -2.9810    18.8240 ca         1 SQE       0.427900
      9 N          -34.0810    -2.3390    19.9580 nu         1 SQE      -0.909100
     10 C          -34.4080    -0.9060    20.1010 c3         1 SQE       0.225100
     11 C11        -30.0250    -6.9490     9.4920 cp         1 SQE       0.414500
     12 C14        -29.0090    -8.0960     7.1770 ca         1 SQE      -0.121000
     13 C15        -29.5960    -8.9370     8.1330 ca         1 SQE      -0.077000
     14 C16        -30.1070    -8.3530     9.3040 ca         1 SQE      -0.136000
     15 C17        -30.0780    -4.9900    11.1270 ca         1 SQE      -0.069000
     16 C18        -30.5710    -4.3510    12.2750 ca         1 SQE      -0.084000
     17 C19        -32.3870    -2.7880    14.2180 c          1 SQE       0.577200
     18 C21        -32.0150     0.2720    15.5760 c6         1 SQE       0.359300
     19 C22        -30.4240     0.9660    17.2420 c6         1 SQE       0.137600
     20 C23        -30.8520     2.4550    17.0670 c6         1 SQE       0.090500
     21 C24        -31.5060     2.6220    15.6630 c6         1 SQE       0.137600
     22 C5         -32.2050    -4.9560    15.4840 cc         1 SQE      -0.013200
     23 C6         -32.0170    -4.2440    14.3100 cd         1 SQE      -0.179400
     24 C8         -32.0610    -6.2200    12.6830 ca         1 SQE       0.125000
     25 C9         -31.5650    -6.8530    11.5290 ca         1 SQE      -0.092000
     26 F          -28.9380    -5.8120     5.2120 f          1 SQE      -0.116500
     27 F1         -27.0110    -6.0660     6.1870 f          1 SQE      -0.116500
     28 N1         -33.3410    -4.2860    18.9700 nb         1 SQE      -0.264000
     29 N2         -33.4770    -2.2510    17.7060 nb         1 SQE      -0.296000
     30 N3         -29.4430    -6.1580     8.5590 nb         1 SQE      -0.659000
     31 N4         -32.8480    -2.1640    15.3960 n          1 SQE      -0.356300
     32 N5         -29.7170     3.4060    17.2750 n8         1 SQE      -0.993200
     33 O1         -31.5280     0.0940    16.9200 os         1 SQE      -0.458500
     34 O2         -32.5240     1.6150    15.4660 os         1 SQE      -0.458500
     35 Cl         -33.4070    -7.0160    13.5080 cl         1 SQE      -0.201000
     36 H1         -28.3630    -4.7320     6.7820 h2         1 SQE       0.077700
     37 H2         -32.6610    -5.9830    17.9840 h4         1 SQE       0.024100
     38 H3         -34.1640    -2.9300    20.7880 hn         1 SQE       0.514000
     39 H4         -34.7510    -0.6880    21.1210 h1         1 SQE       0.047367
     40 H5         -33.5240    -0.2870    19.8930 h1         1 SQE       0.047367
     41 H6         -35.2040    -0.6200    19.4010 h1         1 SQE       0.047367
     42 H7         -28.6010    -8.5070     6.2570 ha         1 SQE       0.141000
     43 H8         -29.6500   -10.0120     7.9750 ha         1 SQE       0.125000
     44 H9         -30.5490    -8.9880    10.0640 ha         1 SQE       0.129000
     45 H10        -29.3020    -4.4910    10.5500 ha         1 SQE       0.137000
     46 H11        -30.1470    -3.3900    12.5560 ha         1 SQE       0.125000
     47 H12        -33.9890    -0.4700    16.0520 h1         1 SQE       0.094200
     48 H13        -33.6220    -0.4750    14.3450 h1         1 SQE       0.094200
     49 H14        -31.2170     0.0920    14.8390 h2         1 SQE       0.042700
     50 H15        -29.5770     0.7300    16.5800 h1         1 SQE       0.051450
     51 H16        -30.1110     0.7790    18.2790 h1         1 SQE       0.051450
     52 H17        -31.6190     2.6820    17.8250 h1         1 SQE       0.081700
     53 H18        -30.7480     2.5230    14.8720 h1         1 SQE       0.051450
     54 H19        -31.9650     3.6170    15.5740 h1         1 SQE       0.051450
     55 H20        -31.9270    -6.0060    15.5430 ha         1 SQE       0.193000
     56 H21        -32.0020    -7.8060    11.2450 ha         1 SQE       0.127000
     57 H22        -29.3250     3.2700    18.2160 hn         1 SQE       0.399000
     58 H23        -28.9390     3.1540    16.6520 hn         1 SQE       0.399000
     59 O          -32.3020    -2.1560    13.1720 o          1 SQE      -0.535000
     60 C20        -33.1990    -0.7070    15.3300 c3         1 SQE       0.102000
@<TRIPOS>BOND
     1     1     2 1   
     2     1    26 1   
     3     1    27 1   
     4     1    36 1   
     5     2    12 ar  
     6     2    30 ar  
     7     3    11 1   
     8     3    15 ar  
     9     3    25 ar  
    10     4    16 ar  
    11     4    23 1   
    12     4    24 ar  
    13     5     6 ar  
    14     5     7 ar  
    15     5    22 1   
    16     6    29 ar  
    17     6    31 1   
    18     7    28 ar  
    19     7    37 1   
    20     8     9 1   
    21     8    28 ar  
    22     8    29 ar  
    23     9    10 1   
    24     9    38 1   
    25    10    39 1   
    26    10    40 1   
    27    10    41 1   
    28    11    14 ar  
    29    11    30 ar  
    30    12    13 ar  
    31    12    42 1   
    32    13    14 ar  
    33    13    43 1   
    34    14    44 1   
    35    15    16 ar  
    36    15    45 1   
    37    16    46 1   
    38    17    23 1   
    39    17    31 1   
    40    17    59 2   
    41    18    33 1   
    42    18    34 1   
    43    18    49 1   
    44    18    60 1   
    45    19    20 1   
    46    19    33 1   
    47    19    50 1   
    48    19    51 1   
    49    20    21 1   
    50    20    32 1   
    51    20    52 1   
    52    21    34 1   
    53    21    53 1   
    54    21    54 1   
    55    22    23 2   
    56    22    55 1   
    57    24    25 ar  
    58    24    35 1   
    59    25    56 1   
    60    31    60 1   
    61    32    57 1   
    62    32    58 1   
    63    47    60 1   
    64    48    60 1   
@<TRIPOS>SUBSTRUCTURE
     1 SQE         1 TEMP              0 ****  ****    0 ROOT
