@<TRIPOS>MOLECULE
SQG
   24    24     1     0     0
SMALL
abcg2


@<TRIPOS>ATOM
      1 N1          48.2010    93.2520     6.3670 n1         1 SQG      -0.423000
      2 C4          42.5490    94.1690     8.9570 ca         1 SQG      -0.142500
      3 C5          42.7800    95.1000     7.9430 ca         1 SQG      -0.010000
      4 C6          45.0670    94.4080     7.2730 c          1 SQG       0.614100
      5 C7          46.1520    94.8480     6.2960 c3         1 SQG      -0.105300
      6 C8          47.2880    93.9500     6.3440 c1         1 SQG       0.304900
      7 N           43.9690    95.1920     7.2120 ns         1 SQG      -0.146000
      8 C           41.7790    96.0190     7.6240 ca         1 SQG      -0.142500
      9 O           45.2160    93.4550     8.0070 o          1 SQG      -0.546100
     10 C1          40.5680    96.0130     8.2890 ca         1 SQG      -0.069500
     11 C2          40.3520    95.0770     9.2860 ca         1 SQG       0.064100
     12 C3          41.3310    94.1630     9.6220 ca         1 SQG      -0.069500
     13 C9          38.1380    94.3740     9.5300 c3         1 SQG       0.513000
     14 F           38.4280    93.0760     9.4260 f          1 SQG      -0.109333
     15 F1          37.7350    94.7750     8.3220 f          1 SQG      -0.109333
     16 F2          37.1250    94.5090    10.3710 f          1 SQG      -0.109333
     17 O1          39.1590    95.0970    10.0020 os         1 SQG      -0.398100
     18 H1          43.2990    93.4500     9.2390 ha         1 SQG       0.137000
     19 H2          46.4900    95.8590     6.5370 hc         1 SQG       0.089700
     20 H3          45.7640    94.8780     5.2750 hc         1 SQG       0.089700
     21 H4          43.9910    95.9440     6.5390 hn         1 SQG       0.154000
     22 H5          41.9460    96.7510     6.8430 ha         1 SQG       0.137000
     23 H6          39.8110    96.7430     8.0370 ha         1 SQG       0.138000
     24 H7          41.1660    93.4470    10.4160 ha         1 SQG       0.138000
@<TRIPOS>BOND
     1     1     6 3   
     2     2     3 ar  
     3     2    12 ar  
     4     2    18 1   
     5     3     7 1   
     6     3     8 ar  
     7     4     5 1   
     8     4     7 1   
     9     4     9 2   
    10     5     6 1   
    11     5    19 1   
    12     5    20 1   
    13     7    21 1   
    14     8    10 ar  
    15     8    22 1   
    16    10    11 ar  
    17    10    23 1   
    18    11    12 ar  
    19    11    17 1   
    20    12    24 1   
    21    13    14 1   
    22    13    15 1   
    23    13    16 1   
    24    13    17 1   
@<TRIPOS>SUBSTRUCTURE
     1 SQG         1 TEMP              0 ****  ****    0 ROOT
