@<TRIPOS>MOLECULE
SQG
   24    24     1     0     0
SMALL
No Charge or Current Charge


@<TRIPOS>ATOM
      1 N1          47.2620    93.0180     5.3300 n1         1 SQG      -0.423000
      2 C4          42.7900    94.4360     9.3130 ca         1 SQG      -0.142500
      3 C5          42.8630    94.9020     7.9830 ca         1 SQG      -0.010000
      4 C6          45.4130    94.8700     7.6240 c          1 SQG       0.614100
      5 C7          46.4150    95.1950     6.5240 c3         1 SQG      -0.105300
      6 C8          46.8870    93.9770     5.8750 c1         1 SQG       0.304900
      7 N           44.0830    95.0790     7.2720 ns         1 SQG      -0.146000
      8 C           41.6670    95.2140     7.3090 ca         1 SQG      -0.142500
      9 O           45.7800    94.4570     8.7180 o          1 SQG      -0.546100
     10 C1          40.4190    95.0660     7.9410 ca         1 SQG      -0.069500
     11 C2          40.3520    94.5990     9.2730 ca         1 SQG       0.064100
     12 C3          41.5430    94.2870     9.9470 ca         1 SQG      -0.069500
     13 C9          37.8590    94.7000     9.4150 c3         1 SQG       0.513000
     14 F           37.5940    93.9380     8.3290 f          1 SQG      -0.109333
     15 F1          37.7190    95.9980     9.0580 f          1 SQG      -0.109333
     16 F2          36.8950    94.4370    10.3240 f          1 SQG      -0.109333
     17 O1          39.1650    94.4260     9.9650 os         1 SQG      -0.398100
     18 H1          43.6820    94.1820     9.8770 ha         1 SQG       0.137000
     19 H2          47.2820    95.7000     6.9630 hc         1 SQG       0.089700
     20 H3          45.9550    95.8240     5.7550 hc         1 SQG       0.089700
     21 H4          43.9560    95.4220     6.3290 hn         1 SQG       0.154000
     22 H5          41.7000    95.5750     6.2830 ha         1 SQG       0.137000
     23 H6          39.5250    95.3190     7.3800 ha         1 SQG       0.138000
     24 H7          41.4990    93.9270    10.9720 ha         1 SQG       0.138000
@<TRIPOS>BOND
     1     1     6 3   
     2     2     3 ar  
     3     2    12 ar  
     4     2    18 1   
     5     3     7 1   
     6     3     8 ar  
     7     4     5 1   
     8     4     7 1   
     9     4     9 2   
    10     5     6 1   
    11     5    19 1   
    12     5    20 1   
    13     7    21 1   
    14     8    10 ar  
    15     8    22 1   
    16    10    11 ar  
    17    10    23 1   
    18    11    12 ar  
    19    11    17 1   
    20    12    24 1   
    21    13    14 1   
    22    13    15 1   
    23    13    16 1   
    24    13    17 1   
@<TRIPOS>SUBSTRUCTURE
     1 SQG         1 TEMP              0 ****  ****    0 ROOT
