@<TRIPOS>MOLECULE
SQH
   31    33     1     0     0
SMALL
abcg2


@<TRIPOS>ATOM
      1 C1          23.5690    30.5520    40.5260 ca         1 SQH       0.083100
      2 C10         19.7460    30.5430    38.9430 cc         1 SQH      -0.391200
      3 C11         20.7070    31.4070    38.5230 cd         1 SQH       0.222900
      4 C13         20.5670    32.4310    37.4860 ca         1 SQH      -0.077800
      5 C14         19.3480    32.6120    36.8140 ca         1 SQH      -0.137000
      6 C15         19.2080    33.5760    35.8330 ca         1 SQH       0.099100
      7 C16         20.3030    34.3920    35.4950 ca         1 SQH       0.135100
      8 C17         21.5110    34.2150    36.1580 ca         1 SQH      -0.186000
      9 C18         21.6480    33.2480    37.1430 ca         1 SQH      -0.052000
     10 C2          22.2630    30.4940    40.0390 ca         1 SQH       0.150100
     11 C3          21.3370    29.5680    40.5310 ca         1 SQH      -0.218600
     12 C4          21.7420    28.6830    41.5360 ca         1 SQH      -0.021000
     13 C5          23.0290    28.7250    42.0300 ca         1 SQH      -0.188000
     14 C6          23.9420    29.6560    41.5260 ca         1 SQH       0.088100
     15 C9          19.9820    29.5610    39.9710 c          1 SQH       0.595900
     16 O12         21.9500    31.3870    39.0610 os         1 SQH      -0.203200
     17 O19         18.0460    33.7880    35.1560 oh         1 SQH      -0.514100
     18 O20         20.1110    35.3200    34.5250 oh         1 SQH      -0.509100
     19 O21         19.1090    28.7690    40.3550 o          1 SQH      -0.554100
     20 O7          25.2290    29.7610    41.9540 oh         1 SQH      -0.555100
     21 O8          24.4330    31.4700    40.0180 oh         1 SQH      -0.519100
     22 H1          18.7620    30.5750    38.5010 ha         1 SQH       0.211000
     23 H2          18.4870    32.0010    37.0510 ha         1 SQH       0.123000
     24 H3          22.3520    34.8460    35.8930 ha         1 SQH       0.122000
     25 H4          22.5970    33.1320    37.6420 ha         1 SQH       0.142000
     26 H5          21.0270    27.9680    41.9170 ha         1 SQH       0.144000
     27 H6          23.3500    28.0430    42.8080 ha         1 SQH       0.123000
     28 H7          17.3650    33.1800    35.4760 ho         1 SQH       0.461000
     29 H8          20.9280    35.8160    34.3760 ho         1 SQH       0.463000
     30 H9          25.4180    29.1050    42.6390 ho         1 SQH       0.482000
     31 H10         25.2880    31.3740    40.4630 ho         1 SQH       0.481000
@<TRIPOS>BOND
     1     1    10 ar  
     2     1    14 ar  
     3     1    21 1   
     4     2     3 2   
     5     2    15 1   
     6     2    22 1   
     7     3     4 1   
     8     3    16 1   
     9     4     5 ar  
    10     4     9 ar  
    11     5     6 ar  
    12     5    23 1   
    13     6     7 ar  
    14     6    17 1   
    15     7     8 ar  
    16     7    18 1   
    17     8     9 ar  
    18     8    24 1   
    19     9    25 1   
    20    10    11 ar  
    21    10    16 1   
    22    11    12 ar  
    23    11    15 1   
    24    12    13 ar  
    25    12    26 1   
    26    13    14 ar  
    27    13    27 1   
    28    14    20 1   
    29    15    19 2   
    30    17    28 1   
    31    18    29 1   
    32    20    30 1   
    33    21    31 1   
@<TRIPOS>SUBSTRUCTURE
     1 SQH         1 TEMP              0 ****  ****    0 ROOT
