@<TRIPOS>MOLECULE
SQH
   31    33     1     0     0
SMALL
No Charge or Current Charge


@<TRIPOS>ATOM
      1 C1          23.6250    30.5330    40.5540 ca         1 SQH       0.083100
      2 C10         19.7380    30.5480    38.9360 cc         1 SQH      -0.391200
      3 C11         20.6960    31.4330    38.4870 cd         1 SQH       0.222900
      4 C13         20.5310    32.4670    37.4330 ca         1 SQH      -0.077800
      5 C14         19.2970    32.6390    36.7590 ca         1 SQH      -0.137000
      6 C15         19.1460    33.6200    35.7610 ca         1 SQH       0.099100
      7 C16         20.2390    34.4510    35.4180 ca         1 SQH       0.135100
      8 C17         21.4660    34.2890    36.0790 ca         1 SQH      -0.186000
      9 C18         21.6120    33.3080    37.0750 ca         1 SQH      -0.052000
     10 C2          22.3090    30.5010    40.0420 ca         1 SQH       0.150100
     11 C3          21.3790    29.5750    40.5420 ca         1 SQH      -0.218600
     12 C4          21.7640    28.6750    41.5590 ca         1 SQH      -0.021000
     13 C5          23.0740    28.7060    42.0700 ca         1 SQH      -0.188000
     14 C6          24.0030    29.6320    41.5700 ca         1 SQH       0.088100
     15 C9          19.9960    29.5650    39.9820 c          1 SQH       0.595900
     16 O12         21.9450    31.3840    39.0490 os         1 SQH      -0.203200
     17 O19         17.9350    33.7560    35.1320 oh         1 SQH      -0.514100
     18 O20         20.1210    35.4140    34.4510 oh         1 SQH      -0.509100
     19 O21         19.1350    28.7870    40.3690 o          1 SQH      -0.554100
     20 O7          25.2780    29.6600    42.0690 oh         1 SQH      -0.555100
     21 O8          24.5540    31.4270    40.0840 oh         1 SQH      -0.519100
     22 H1          18.7320    30.5250    38.5440 ha         1 SQH       0.211000
     23 H2          18.4460    32.0130    37.0060 ha         1 SQH       0.123000
     24 H3          22.3150    34.9200    35.8260 ha         1 SQH       0.122000
     25 H4          22.5790    33.2120    37.5660 ha         1 SQH       0.142000
     26 H5          21.0520    27.9520    41.9560 ha         1 SQH       0.144000
     27 H6          23.3560    28.0070    42.8540 ha         1 SQH       0.123000
     28 H7          17.3090    33.0980    35.5010 ho         1 SQH       0.461000
     29 H8          20.9810    35.8760    34.3640 ho         1 SQH       0.463000
     30 H9          25.3610    28.9690    42.7630 ho         1 SQH       0.482000
     31 H10         25.3800    31.2550    40.5890 ho         1 SQH       0.481000
@<TRIPOS>BOND
     1     1    10 ar  
     2     1    14 ar  
     3     1    21 1   
     4     2     3 2   
     5     2    15 1   
     6     2    22 1   
     7     3     4 1   
     8     3    16 1   
     9     4     5 ar  
    10     4     9 ar  
    11     5     6 ar  
    12     5    23 1   
    13     6     7 ar  
    14     6    17 1   
    15     7     8 ar  
    16     7    18 1   
    17     8     9 ar  
    18     8    24 1   
    19     9    25 1   
    20    10    11 ar  
    21    10    16 1   
    22    11    12 ar  
    23    11    15 1   
    24    12    13 ar  
    25    12    26 1   
    26    13    14 ar  
    27    13    27 1   
    28    14    20 1   
    29    15    19 2   
    30    17    28 1   
    31    18    29 1   
    32    20    30 1   
    33    21    31 1   
@<TRIPOS>SUBSTRUCTURE
     1 SQH         1 TEMP              0 ****  ****    0 ROOT
