@<TRIPOS>MOLECULE
SQI
   52    51     1     0     0
SMALL
abcg2


@<TRIPOS>ATOM
      1 N          105.6610   125.7660   141.6930 n8         1 SQI      -1.001200
      2 C1         102.6860   129.0120   124.2220 c3         1 SQI      -0.088100
      3 C10        105.2930   125.4150   133.3320 c3         1 SQI      -0.073400
      4 C11        105.6010   125.3160   134.8270 c3         1 SQI      -0.073400
      5 C12        106.3050   126.5450   135.4060 c3         1 SQI      -0.074400
      6 C13        106.7950   126.3640   136.8450 c3         1 SQI      -0.073400
      7 C14        105.6820   126.1780   137.8750 c3         1 SQI      -0.075400
      8 C15        106.2090   126.0610   139.3030 c3         1 SQI      -0.079400
      9 C16        105.1050   125.8730   140.3350 c3         1 SQI       0.150800
     10 C2         101.6090   128.8000   125.2840 c3         1 SQI      -0.076400
     11 C3         102.1600   128.8160   126.7090 c3         1 SQI      -0.077400
     12 C4         101.0820   128.6030   127.7710 c3         1 SQI      -0.073400
     13 C5         101.5830   128.6810   129.2150 c3         1 SQI      -0.072400
     14 C6         102.5650   127.5770   129.6050 c3         1 SQI      -0.075400
     15 C7         102.9510   127.6090   131.0820 c3         1 SQI      -0.075400
     16 C8         103.9380   126.5120   131.4750 c3         1 SQI      -0.075400
     17 C9         104.3010   126.5150   132.9580 c3         1 SQI      -0.075400
     18 H1         104.9080   125.6490   142.3630 hn         1 SQI       0.391500
     19 H2         106.2240   124.9240   141.7590 hn         1 SQI       0.391500
     20 H4         102.2630   129.0010   123.2150 hc         1 SQI       0.031367
     21 H5         103.1900   129.9720   124.3630 hc         1 SQI       0.031367
     22 H6         103.4460   128.2280   124.2750 hc         1 SQI       0.031367
     23 H7         104.8930   124.4540   132.9900 hc         1 SQI       0.036700
     24 H8         106.2280   125.5720   132.7810 hc         1 SQI       0.036700
     25 H9         104.6680   125.1300   135.3700 hc         1 SQI       0.037700
     26 H10        106.2350   124.4390   135.0000 hc         1 SQI       0.037700
     27 H11        107.1630   126.7860   134.7690 hc         1 SQI       0.038700
     28 H12        105.6380   127.4120   135.3630 hc         1 SQI       0.038700
     29 H13        107.4710   125.5010   136.8870 hc         1 SQI       0.038200
     30 H14        107.3920   127.2360   137.1290 hc         1 SQI       0.038200
     31 H15        104.9890   127.0260   137.8120 hc         1 SQI       0.036700
     32 H16        105.0970   125.2850   137.6350 hc         1 SQI       0.036700
     33 H17        106.9020   125.2140   139.3650 hc         1 SQI       0.045200
     34 H18        106.7860   126.9560   139.5600 hc         1 SQI       0.045200
     35 H19        104.4350   126.7370   140.3130 h1         1 SQI       0.026700
     36 H20        104.5010   124.9980   140.0550 h1         1 SQI       0.026700
     37 H21        100.8410   129.5760   125.1880 hc         1 SQI       0.035700
     38 H22        101.1030   127.8450   125.1070 hc         1 SQI       0.035700
     39 H23        102.9320   128.0450   126.7990 hc         1 SQI       0.037700
     40 H24        102.6600   129.7740   126.8910 hc         1 SQI       0.037700
     41 H25        100.2970   129.3530   127.6270 hc         1 SQI       0.037200
     42 H26        100.6060   127.6280   127.6090 hc         1 SQI       0.037200
     43 H27        102.0530   129.6580   129.3810 hc         1 SQI       0.037200
     44 H28        100.7210   128.6370   129.8890 hc         1 SQI       0.037200
     45 H29        102.1200   126.6030   129.3710 hc         1 SQI       0.037700
     46 H30        103.4720   127.6530   128.9980 hc         1 SQI       0.037700
     47 H31        103.3830   128.5870   131.3240 hc         1 SQI       0.036200
     48 H32        102.0450   127.5150   131.6930 hc         1 SQI       0.036200
     49 H33        103.5140   125.5360   131.2100 hc         1 SQI       0.036200
     50 H34        104.8520   126.6200   130.8790 hc         1 SQI       0.036200
     51 H35        104.7120   127.4940   133.2230 hc         1 SQI       0.037700
     52 H36        103.3890   126.3930   133.5540 hc         1 SQI       0.037700
@<TRIPOS>BOND
     1     1     9 1   
     2     1    18 1   
     3     1    19 1   
     4     2    10 1   
     5     2    20 1   
     6     2    21 1   
     7     2    22 1   
     8     3     4 1   
     9     3    17 1   
    10     3    23 1   
    11     3    24 1   
    12     4     5 1   
    13     4    25 1   
    14     4    26 1   
    15     5     6 1   
    16     5    27 1   
    17     5    28 1   
    18     6     7 1   
    19     6    29 1   
    20     6    30 1   
    21     7     8 1   
    22     7    31 1   
    23     7    32 1   
    24     8     9 1   
    25     8    33 1   
    26     8    34 1   
    27     9    35 1   
    28     9    36 1   
    29    10    11 1   
    30    10    37 1   
    31    10    38 1   
    32    11    12 1   
    33    11    39 1   
    34    11    40 1   
    35    12    13 1   
    36    12    41 1   
    37    12    42 1   
    38    13    14 1   
    39    13    43 1   
    40    13    44 1   
    41    14    15 1   
    42    14    45 1   
    43    14    46 1   
    44    15    16 1   
    45    15    47 1   
    46    15    48 1   
    47    16    17 1   
    48    16    49 1   
    49    16    50 1   
    50    17    51 1   
    51    17    52 1   
@<TRIPOS>SUBSTRUCTURE
     1 SQI         1 TEMP              0 ****  ****    0 ROOT
