@<TRIPOS>MOLECULE
SQI
   52    51     1     0     0
SMALL
No Charge or Current Charge


@<TRIPOS>ATOM
      1 N          105.6250   125.9610   141.7570 n8         1 SQI      -1.001200
      2 C1         102.7340   129.2200   124.2160 c3         1 SQI      -0.088100
      3 C10        105.2980   125.2990   133.3240 c3         1 SQI      -0.073400
      4 C11        105.6350   125.2210   134.8320 c3         1 SQI      -0.073400
      5 C12        106.3730   126.4650   135.3860 c3         1 SQI      -0.074400
      6 C13        106.8580   126.3210   136.8490 c3         1 SQI      -0.073400
      7 C14        105.7200   126.1930   137.8900 c3         1 SQI      -0.075400
      8 C15        106.2380   126.1380   139.3450 c3         1 SQI      -0.079400
      9 C16        105.1010   126.0090   140.3800 c3         1 SQI       0.150800
     10 C2         101.6280   128.9250   125.2480 c3         1 SQI      -0.076400
     11 C3         102.1520   128.8750   126.6990 c3         1 SQI      -0.077400
     12 C4         101.0400   128.5770   127.7320 c3         1 SQI      -0.073400
     13 C5         101.5100   128.6060   129.2070 c3         1 SQI      -0.072400
     14 C6         102.5200   127.4950   129.5810 c3         1 SQI      -0.075400
     15 C7         102.8960   127.5030   131.0780 c3         1 SQI      -0.075400
     16 C8         103.9070   126.3970   131.4530 c3         1 SQI      -0.075400
     17 C9         104.2830   126.4050   132.9510 c3         1 SQI      -0.075400
     18 H1         104.8430   125.8100   142.4070 hn         1 SQI       0.391500
     19 H2         106.1940   125.1130   141.8670 hn         1 SQI       0.391500
     20 H4         102.3140   129.2450   123.2030 hc         1 SQI       0.031367
     21 H5         103.2040   130.1900   124.4170 hc         1 SQI       0.031367
     22 H6         103.5090   128.4450   124.2470 hc         1 SQI       0.031367
     23 H7         104.8910   124.3280   133.0120 hc         1 SQI       0.036700
     24 H8         106.2230   125.4470   132.7540 hc         1 SQI       0.036700
     25 H9         104.7060   125.0600   135.3930 hc         1 SQI       0.037700
     26 H10        106.2610   124.3360   135.0000 hc         1 SQI       0.037700
     27 H11        107.2450   126.6690   134.7530 hc         1 SQI       0.038700
     28 H12        105.7220   127.3450   135.3160 hc         1 SQI       0.038700
     29 H13        107.5210   125.4500   136.9250 hc         1 SQI       0.038200
     30 H14        107.4660   127.1990   137.0970 hc         1 SQI       0.038200
     31 H15        105.0370   127.0450   137.7840 hc         1 SQI       0.036700
     32 H16        105.1380   125.2860   137.6890 hc         1 SQI       0.036700
     33 H17        106.9220   125.2870   139.4500 hc         1 SQI       0.045200
     34 H18        106.8160   127.0460   139.5560 hc         1 SQI       0.045200
     35 H19        104.4210   126.8680   140.2920 h1         1 SQI       0.026700
     36 H20        104.5280   125.0910   140.1880 h1         1 SQI       0.026700
     37 H21        100.8510   129.6960   125.1670 hc         1 SQI       0.035700
     38 H22        101.1550   127.9670   124.9990 hc         1 SQI       0.035700
     39 H23        102.9320   128.1070   126.7650 hc         1 SQI       0.037700
     40 H24        102.6240   129.8350   126.9450 hc         1 SQI       0.037700
     41 H25        100.2400   129.3180   127.6120 hc         1 SQI       0.037200
     42 H26        100.5950   127.5980   127.5150 hc         1 SQI       0.037200
     43 H27        101.9500   129.5860   129.4260 hc         1 SQI       0.037200
     44 H28        100.6260   128.5090   129.8500 hc         1 SQI       0.037200
     45 H29        102.0930   126.5180   129.3210 hc         1 SQI       0.037700
     46 H30        103.4340   127.6150   128.9880 hc         1 SQI       0.037700
     47 H31        103.3200   128.4810   131.3380 hc         1 SQI       0.036200
     48 H32        101.9860   127.3780   131.6790 hc         1 SQI       0.036200
     49 H33        103.4830   125.4190   131.1930 hc         1 SQI       0.036200
     50 H34        104.8170   126.5220   130.8530 hc         1 SQI       0.036200
     51 H35        104.7000   127.3870   133.2040 hc         1 SQI       0.037700
     52 H36        103.3740   126.2770   133.5520 hc         1 SQI       0.037700
@<TRIPOS>BOND
     1     1     9 1   
     2     1    18 1   
     3     1    19 1   
     4     2    10 1   
     5     2    20 1   
     6     2    21 1   
     7     2    22 1   
     8     3     4 1   
     9     3    17 1   
    10     3    23 1   
    11     3    24 1   
    12     4     5 1   
    13     4    25 1   
    14     4    26 1   
    15     5     6 1   
    16     5    27 1   
    17     5    28 1   
    18     6     7 1   
    19     6    29 1   
    20     6    30 1   
    21     7     8 1   
    22     7    31 1   
    23     7    32 1   
    24     8     9 1   
    25     8    33 1   
    26     8    34 1   
    27     9    35 1   
    28     9    36 1   
    29    10    11 1   
    30    10    37 1   
    31    10    38 1   
    32    11    12 1   
    33    11    39 1   
    34    11    40 1   
    35    12    13 1   
    36    12    41 1   
    37    12    42 1   
    38    13    14 1   
    39    13    43 1   
    40    13    44 1   
    41    14    15 1   
    42    14    45 1   
    43    14    46 1   
    44    15    16 1   
    45    15    47 1   
    46    15    48 1   
    47    16    17 1   
    48    16    49 1   
    49    16    50 1   
    50    17    51 1   
    51    17    52 1   
@<TRIPOS>SUBSTRUCTURE
     1 SQI         1 TEMP              0 ****  ****    0 ROOT
