@<TRIPOS>MOLECULE
SQK
   60    64     1     0     0
SMALL
bcc


@<TRIPOS>ATOM
      1 C1         -33.6370    -2.9620    18.8970 ca         1 SQK       0.952900
      2 O1         -31.5210    -0.2290    16.6740 os         1 SQK      -0.411600
      3 C2         -32.8650    -4.8890    18.0130 ca         1 SQK       0.536200
      4 C3         -33.1300    -2.9410    16.6920 ca         1 SQK       0.654200
      5 C4         -32.7490    -4.2920    16.7530 ca         1 SQK      -0.442400
      6 C5         -32.2980    -4.9490    15.5840 cc         1 SQK       0.035800
      7 C6         -32.2200    -4.2860    14.4090 cd         1 SQK      -0.177400
      8 C7         -31.7560    -4.9310    13.1660 ca         1 SQK      -0.007800
      9 C8         -32.4680    -5.9490    12.5390 ca         1 SQK       0.033400
     10 C9         -32.0120    -6.5630    11.3820 ca         1 SQK      -0.100000
     11 C10        -30.8130    -6.1550    10.8070 cp         1 SQK      -0.132500
     12 C11        -30.3030    -6.7510     9.5540 cp         1 SQK       0.446800
     13 C12        -30.3780    -8.1050     9.2660 ca         1 SQK       0.022600
     14 N          -34.0660    -2.3050    19.9760 nu         1 SQK      -0.853900
     15 C          -34.4420    -0.9140    19.9640 c3         1 SQK       0.226100
     16 C13        -29.8800    -8.6030     8.0780 ca         1 SQK      -0.130000
     17 C14        -29.2990    -7.7140     7.1970 ca         1 SQK      -0.223300
     18 C15        -29.2250    -6.3640     7.5450 ca         1 SQK       0.416600
     19 C16        -28.5790    -5.3710     6.6270 c3         1 SQK      -0.144400
     20 C17        -30.0950    -5.1240    11.4120 ca         1 SQK      -0.088000
     21 C18        -30.5610    -4.5300    12.5690 ca         1 SQK      -0.102000
     22 C19        -32.5940    -2.8810    14.3270 c          1 SQK       0.720700
     23 C21        -32.2370     0.0590    15.5160 c6         1 SQK       0.311900
     24 C22        -30.4040     0.6300    16.8160 c6         1 SQK       0.114400
     25 C23        -30.8400     2.0950    16.8230 c6         1 SQK       0.090500
     26 C24        -31.7230     2.3300    15.6040 c6         1 SQK       0.114400
     27 F          -30.9140    -8.9580    10.1500 f          1 SQK      -0.131900
     28 N1         -33.2910    -4.2590    19.0770 nb         1 SQK      -0.790000
     29 N2         -33.5810    -2.2930    17.7490 nb         1 SQK      -0.822000
     30 N3         -29.7180    -5.9190     8.6910 nb         1 SQK      -0.660000
     31 N4         -33.0460    -2.2770    15.4970 n          1 SQK      -0.424300
     32 N5         -29.7460     3.0440    16.8190 n8         1 SQK      -0.883800
     33 O2         -32.7500     1.3570    15.5330 os         1 SQK      -0.411600
     34 CL         -33.9920    -6.4690    13.1830 cl         1 SQK      -0.111400
     35 H1         -32.5900    -5.9330    18.1340 h4         1 SQK       0.025100
     36 H2         -32.0110    -5.9930    15.6490 ha         1 SQK       0.144000
     37 H3         -32.6210    -7.3280    10.9210 ha         1 SQK       0.153000
     38 H4         -34.1070    -2.8190    20.8390 hn         1 SQK       0.457800
     39 H5         -34.6700    -0.6150    20.9820 h1         1 SQK       0.046700
     40 H6         -33.6350    -0.2870    19.5850 h1         1 SQK       0.046700
     41 H7         -35.3230    -0.7360    19.3450 h1         1 SQK       0.046700
     42 H8         -29.9410    -9.6610     7.8580 ha         1 SQK       0.155000
     43 H9         -28.8990    -8.0600     6.2540 ha         1 SQK       0.145000
     44 H10        -28.6690    -4.3620     7.0240 hc         1 SQK       0.054033
     45 H11        -27.5190    -5.5960     6.4960 hc         1 SQK       0.054033
     46 H12        -29.0360    -5.3960     5.6370 hc         1 SQK       0.054033
     47 H13        -29.1630    -4.7930    10.9750 ha         1 SQK       0.150000
     48 H14        -29.9800    -3.7450    13.0340 ha         1 SQK       0.142000
     49 H15        -34.1200    -0.6710    16.2410 h1         1 SQK       0.093700
     50 H16        -33.9530    -0.7030    14.4830 h1         1 SQK       0.093700
     51 H17        -31.5740    -0.0580    14.6410 h2         1 SQK       0.041700
     52 H18        -29.6890     0.4700    15.9930 h1         1 SQK       0.051450
     53 H19        -29.9050     0.3620    17.7490 h1         1 SQK       0.051450
     54 H20        -31.4410     2.2720    17.7210 h1         1 SQK       0.081700
     55 H21        -31.1090     2.3000    14.6900 h1         1 SQK       0.051450
     56 H22        -32.2010     3.3090    15.6500 h1         1 SQK       0.051450
     57 H23        -29.2240     2.9780    17.6840 hn         1 SQK       0.343800
     58 H24        -29.0920     2.8230    16.0780 hn         1 SQK       0.343800
     59 O          -32.5300    -2.2360    13.2920 o          1 SQK      -0.610500
     60 C20        -33.4340    -0.8750    15.4240 c3         1 SQK       0.102000
@<TRIPOS>BOND
     1     1    14 1   
     2     1    28 ar  
     3     1    29 ar  
     4     2    23 1   
     5     2    24 1   
     6     3     5 ar  
     7     3    28 ar  
     8     3    35 1   
     9     4     5 ar  
    10     4    29 ar  
    11     4    31 1   
    12     5     6 1   
    13     6     7 2   
    14     6    36 1   
    15     7     8 1   
    16     7    22 1   
    17     8     9 ar  
    18     8    21 ar  
    19     9    10 ar  
    20     9    34 1   
    21    10    11 ar  
    22    10    37 1   
    23    11    12 1   
    24    11    20 ar  
    25    12    13 ar  
    26    12    30 ar  
    27    13    16 ar  
    28    13    27 1   
    29    14    15 1   
    30    14    38 1   
    31    15    39 1   
    32    15    40 1   
    33    15    41 1   
    34    16    17 ar  
    35    16    42 1   
    36    17    18 ar  
    37    17    43 1   
    38    18    19 1   
    39    18    30 ar  
    40    19    44 1   
    41    19    45 1   
    42    19    46 1   
    43    20    21 ar  
    44    20    47 1   
    45    21    48 1   
    46    22    31 1   
    47    22    59 2   
    48    23    33 1   
    49    23    51 1   
    50    23    60 1   
    51    24    25 1   
    52    24    52 1   
    53    24    53 1   
    54    25    26 1   
    55    25    32 1   
    56    25    54 1   
    57    26    33 1   
    58    26    55 1   
    59    26    56 1   
    60    31    60 1   
    61    32    57 1   
    62    32    58 1   
    63    49    60 1   
    64    50    60 1   
@<TRIPOS>SUBSTRUCTURE
     1 SQK         1 TEMP              0 ****  ****    0 ROOT
