@<TRIPOS>MOLECULE
SQK
   60    64     1     0     0
SMALL
No Charge or Current Charge


@<TRIPOS>ATOM
      1 C1         -33.7580    -3.0080    18.8050 ca         1 SQK       0.426900
      2 O1         -31.5970     0.0450    16.9500 os         1 SQK      -0.458000
      3 C2         -33.0670    -4.9520    17.8370 ca         1 SQK       0.207900
      4 C3         -33.1450    -2.9010    16.6000 ca         1 SQK       0.325900
      5 C4         -32.8630    -4.2700    16.6240 ca         1 SQK      -0.311800
      6 C5         -32.3790    -4.9720    15.4470 cc         1 SQK      -0.014200
      7 C6         -32.1690    -4.2490    14.2830 cd         1 SQK      -0.177400
      8 C7         -31.7230    -4.9510    13.0490 ca         1 SQK      -0.007800
      9 C8         -32.2500    -6.2040    12.6320 ca         1 SQK       0.125000
     10 C9         -31.7610    -6.8340    11.4730 ca         1 SQK      -0.082000
     11 C10        -30.7320    -6.2590    10.6860 cp         1 SQK      -0.132500
     12 C11        -30.2120    -6.9320     9.4440 cp         1 SQK       0.381500
     13 C12        -30.0520    -8.3480     9.3300 ca         1 SQK       0.123000
     14 N          -34.2180    -2.3700    19.9450 nu         1 SQK      -0.909100
     15 C          -34.5130    -0.9320    20.1050 c3         1 SQK       0.226100
     16 C13        -29.5600    -8.8930     8.1330 ca         1 SQK      -0.112000
     17 C14        -29.2370    -8.0150     7.0850 ca         1 SQK      -0.140000
     18 C15        -29.4080    -6.6300     7.2710 ca         1 SQK       0.351300
     19 C16        -29.0580    -5.6420     6.1760 c3         1 SQK      -0.144400
     20 C17        -30.2320    -4.9990    11.0990 ca         1 SQK      -0.070000
     21 C18        -30.7160    -4.3630    12.2530 ca         1 SQK      -0.084000
     22 C19        -32.5060    -2.7850    14.2080 c          1 SQK       0.578200
     23 C21        -32.0740     0.2490    15.6060 c6         1 SQK       0.358300
     24 C22        -30.4750     0.8880    17.2880 c6         1 SQK       0.137600
     25 C23        -30.8700     2.3880    17.1290 c6         1 SQK       0.090500
     26 C24        -31.5130     2.5860    15.7240 c6         1 SQK       0.137600
     27 F          -30.3290    -9.1840    10.3580 f          1 SQK      -0.167000
     28 N1         -33.5170    -4.3200    18.9360 nb         1 SQK      -0.264000
     29 N2         -33.6010    -2.2670    17.6980 nb         1 SQK      -0.296000
     30 N3         -29.8750    -6.1020     8.4230 nb         1 SQK      -0.660000
     31 N4         -32.9590    -2.1650    15.3910 n          1 SQK      -0.357300
     32 N5         -29.7150     3.3110    17.3540 n8         1 SQK      -0.994200
     33 O2         -32.5510     1.6050    15.5100 os         1 SQK      -0.458000
     34 Cl         -33.6180    -6.9790    13.4400 cl         1 SQK      -0.203000
     35 H1         -32.8700    -6.0190    17.9320 h4         1 SQK       0.025100
     36 H2         -32.1250    -6.0280    15.4940 ha         1 SQK       0.194000
     37 H3         -32.2170    -7.7720    11.1680 ha         1 SQK       0.135000
     38 H4         -34.3180    -2.9690    20.7670 hn         1 SQK       0.513000
     39 H5         -34.8560    -0.7200    21.1260 h1         1 SQK       0.046700
     40 H6         -33.6150    -0.3300    19.9090 h1         1 SQK       0.046700
     41 H7         -35.3000    -0.6200    19.4050 h1         1 SQK       0.046700
     42 H8         -29.4280    -9.9670     8.0260 ha         1 SQK       0.137000
     43 H9         -28.8520    -8.3990     6.1440 ha         1 SQK       0.127000
     44 H10        -29.7670    -4.8060     6.1510 hc         1 SQK       0.054033
     45 H11        -28.0550    -5.2290     6.3330 hc         1 SQK       0.054033
     46 H12        -29.0740    -6.1180     5.1890 hc         1 SQK       0.054033
     47 H13        -29.4440    -4.5140    10.5260 ha         1 SQK       0.132000
     48 H14        -30.2740    -3.4140    12.5460 ha         1 SQK       0.124000
     49 H15        -34.0660    -0.4550    16.0630 h1         1 SQK       0.093700
     50 H16        -33.6900    -0.4470    14.3590 h1         1 SQK       0.093700
     51 H17        -31.2750     0.0610    14.8720 h2         1 SQK       0.041700
     52 H18        -29.6310     0.6400    16.6280 h1         1 SQK       0.051450
     53 H19        -30.1730     0.6810    18.3240 h1         1 SQK       0.051450
     54 H20        -31.6360     2.6220    17.8860 h1         1 SQK       0.081700
     55 H21        -30.7530     2.4800    14.9360 h1         1 SQK       0.051450
     56 H22        -31.9490     3.5920    15.6450 h1         1 SQK       0.051450
     57 H23        -29.3310     3.1550    18.2950 hn         1 SQK       0.399000
     58 H24        -28.9390     3.0490    16.7320 hn         1 SQK       0.399000
     59 O          -32.4030    -2.1420    13.1710 o          1 SQK      -0.535000
     60 C20        -33.2770    -0.7000    15.3430 c3         1 SQK       0.102000
@<TRIPOS>BOND
     1     1    14 1   
     2     1    28 ar  
     3     1    29 ar  
     4     2    23 1   
     5     2    24 1   
     6     3     5 ar  
     7     3    28 ar  
     8     3    35 1   
     9     4     5 ar  
    10     4    29 ar  
    11     4    31 1   
    12     5     6 1   
    13     6     7 2   
    14     6    36 1   
    15     7     8 1   
    16     7    22 1   
    17     8     9 ar  
    18     8    21 ar  
    19     9    10 ar  
    20     9    34 1   
    21    10    11 ar  
    22    10    37 1   
    23    11    12 1   
    24    11    20 ar  
    25    12    13 ar  
    26    12    30 ar  
    27    13    16 ar  
    28    13    27 1   
    29    14    15 1   
    30    14    38 1   
    31    15    39 1   
    32    15    40 1   
    33    15    41 1   
    34    16    17 ar  
    35    16    42 1   
    36    17    18 ar  
    37    17    43 1   
    38    18    19 1   
    39    18    30 ar  
    40    19    44 1   
    41    19    45 1   
    42    19    46 1   
    43    20    21 ar  
    44    20    47 1   
    45    21    48 1   
    46    22    31 1   
    47    22    59 2   
    48    23    33 1   
    49    23    51 1   
    50    23    60 1   
    51    24    25 1   
    52    24    52 1   
    53    24    53 1   
    54    25    26 1   
    55    25    32 1   
    56    25    54 1   
    57    26    33 1   
    58    26    55 1   
    59    26    56 1   
    60    31    60 1   
    61    32    57 1   
    62    32    58 1   
    63    49    60 1   
    64    50    60 1   
@<TRIPOS>SUBSTRUCTURE
     1 SQK         1 TEMP              0 ****  ****    0 ROOT
