@<TRIPOS>MOLECULE
SQL
   80    79     1     0     0
SMALL
No Charge or Current Charge


@<TRIPOS>ATOM
      1 C1         -10.9180     1.3510     0.5500 c3         1 SQL      -0.055900
      2 C2         -11.3170     0.5210    -0.6620 c2         1 SQL      -0.112400
      3 C3         -12.8220     0.4690    -0.8530 c3         1 SQL      -0.055900
      4 C4         -10.4630    -0.1100    -1.4900 c2         1 SQL      -0.224200
      5 C5          -8.9460    -0.1150    -1.4250 c3         1 SQL      -0.035700
      6 C6          -8.4040    -1.2410    -0.5190 c3         1 SQL      -0.038200
      7 C7          -6.8900    -1.2080    -0.3640 c2         1 SQL      -0.111400
      8 C8          -6.1530    -1.7920    -1.5630 c3         1 SQL      -0.054900
      9 C9          -6.3000    -0.7170     0.7440 c2         1 SQL      -0.221700
     10 C10         -4.8140    -0.6530     1.0510 c3         1 SQL      -0.036200
     11 C11         -4.1570     0.6260     0.4890 c3         1 SQL      -0.038200
     12 C12         -2.6500     0.6680     0.6990 c2         1 SQL      -0.112400
     13 C13         -2.2580     1.0610     2.1190 c3         1 SQL      -0.054900
     14 C14         -1.7860     0.3920    -0.2970 c2         1 SQL      -0.220200
     15 C15         -0.2690     0.4240    -0.2460 c3         1 SQL      -0.036200
     16 C16          0.3280    -0.9270     0.1950 c3         1 SQL      -0.036200
     17 C17          1.8460    -0.8980     0.2360 c2         1 SQL      -0.220200
     18 C18          2.6360    -0.5410     1.2660 c2         1 SQL      -0.112400
     19 C19          2.1420    -0.0650     2.6280 c3         1 SQL      -0.054900
     20 C20          4.1550    -0.5960     1.1710 c3         1 SQL      -0.038200
     21 C21          4.8020     0.7900     0.9530 c3         1 SQL      -0.036200
     22 C22          6.3090     0.7020     0.7700 c2         1 SQL      -0.221700
     23 C23          7.0880     1.4090    -0.0730 c2         1 SQL      -0.111400
     24 C24          8.5910     1.1790    -0.1550 c3         1 SQL      -0.038200
     25 C25          9.0210     0.4150    -1.4260 c3         1 SQL      -0.035700
     26 C26         10.5080     0.1110    -1.4390 c2         1 SQL      -0.224200
     27 C27         11.1300    -0.9630    -0.9150 c2         1 SQL      -0.112400
     28 C28         12.6300    -1.1650    -1.0190 c3         1 SQL      -0.055900
     29 C29         10.4470    -2.0960    -0.1630 c3         1 SQL      -0.055900
     30 C30          6.6040     2.5090    -1.0110 c3         1 SQL      -0.054900
     31 H1          -9.8390     1.3470     0.7340 hc         1 SQL       0.038533
     32 H2         -11.2250     2.3960     0.4280 hc         1 SQL       0.038533
     33 H3         -11.3970     0.9690     1.4590 hc         1 SQL       0.038533
     34 H4         -13.2370     1.4740    -0.9950 hc         1 SQL       0.038533
     35 H5         -13.1010    -0.1280    -1.7290 hc         1 SQL       0.038533
     36 H6         -13.3160     0.0230     0.0190 hc         1 SQL       0.038533
     37 H7         -10.8560    -0.6850    -2.3310 ha         1 SQL       0.164000
     38 H8          -8.5390    -0.2290    -2.4370 hc         1 SQL       0.045700
     39 H9          -8.8790    -1.1410     0.4640 hc         1 SQL       0.044700
     40 H10         -6.3960    -1.2480    -2.4830 hc         1 SQL       0.039033
     41 H11         -5.0640    -1.7530    -1.4550 hc         1 SQL       0.039033
     42 H12         -6.4260    -2.8420    -1.7180 hc         1 SQL       0.039033
     43 H13         -6.9190    -0.3200     1.5500 ha         1 SQL       0.164000
     44 H14         -4.6650    -0.6960     2.1360 hc         1 SQL       0.045700
     45 H15         -4.3820     0.6770    -0.5840 hc         1 SQL       0.044700
     46 H16         -2.6600     0.3540     2.8530 hc         1 SQL       0.039033
     47 H17         -1.1740     1.0870     2.2700 hc         1 SQL       0.039033
     48 H18         -2.6430     2.0560     2.3710 hc         1 SQL       0.039033
     49 H19         -2.1730     0.1190    -1.2800 ha         1 SQL       0.164500
     50 H20          0.1260     0.6830    -1.2360 hc         1 SQL       0.044950
     51 H21          0.0850     1.2120     0.4280 hc         1 SQL       0.044950
     52 H22         -0.0860    -1.2020     1.1720 hc         1 SQL       0.044950
     53 H23          2.3020    -1.2260    -0.7000 ha         1 SQL       0.164500
     54 H24          2.4900    -0.7310     3.4260 hc         1 SQL       0.039033
     55 H25          2.5070     0.9430     2.8530 hc         1 SQL       0.039033
     56 H26          1.0500    -0.0250     2.6950 hc         1 SQL       0.039033
     57 H27          4.5770    -1.0640     2.0690 hc         1 SQL       0.044700
     58 H28          4.3180     1.2530     0.0860 hc         1 SQL       0.045700
     59 H29          6.7720    -0.0540     1.4080 ha         1 SQL       0.164000
     60 H30          9.1290     2.1340    -0.1040 hc         1 SQL       0.044700
     61 H31          8.4340    -0.5080    -1.5040 hc         1 SQL       0.045700
     62 H32          8.7630     1.0060    -2.3140 hc         1 SQL       0.045700
     63 H33         11.0960     0.8710    -1.9570 ha         1 SQL       0.164000
     64 H34         13.0920    -1.2150    -0.0260 hc         1 SQL       0.038533
     65 H35         12.8680    -2.0960    -1.5470 hc         1 SQL       0.038533
     66 H36         13.1150    -0.3460    -1.5650 hc         1 SQL       0.038533
     67 H37          9.3720    -1.9330    -0.0280 hc         1 SQL       0.038533
     68 H38         10.5700    -3.0480    -0.6920 hc         1 SQL       0.038533
     69 H39         10.8780    -2.2160     0.8390 hc         1 SQL       0.038533
     70 H40          7.2000     3.4200    -0.8870 hc         1 SQL       0.039033
     71 H41          6.6840     2.2000    -2.0590 hc         1 SQL       0.039033
     72 H42          5.5620     2.7950    -0.8340 hc         1 SQL       0.039033
     73 H43         -8.5690     0.8480    -1.0620 hc         1 SQL       0.045700
     74 H44         -8.7290    -2.2140    -0.9090 hc         1 SQL       0.044700
     75 H45         -4.2950    -1.5300     0.6460 hc         1 SQL       0.045700
     76 H46         -4.6330     1.5080     0.9340 hc         1 SQL       0.044700
     77 H47         -0.0060    -1.7090    -0.4970 hc         1 SQL       0.044950
     78 H48          4.4500    -1.2400     0.3320 hc         1 SQL       0.044700
     79 H49          4.5800     1.4300     1.8150 hc         1 SQL       0.045700
     80 H50          8.9280     0.6030     0.7150 hc         1 SQL       0.044700
@<TRIPOS>BOND
     1     1     2 1   
     2     1    31 1   
     3     1    32 1   
     4     1    33 1   
     5     2     3 1   
     6     2     4 2   
     7     3    34 1   
     8     3    35 1   
     9     3    36 1   
    10     4     5 1   
    11     4    37 1   
    12     5     6 1   
    13     5    38 1   
    14     5    73 1   
    15     6     7 1   
    16     6    39 1   
    17     6    74 1   
    18     7     8 1   
    19     7     9 2   
    20     8    40 1   
    21     8    41 1   
    22     8    42 1   
    23     9    10 1   
    24     9    43 1   
    25    10    11 1   
    26    10    44 1   
    27    10    75 1   
    28    11    12 1   
    29    11    45 1   
    30    11    76 1   
    31    12    13 1   
    32    12    14 2   
    33    13    46 1   
    34    13    47 1   
    35    13    48 1   
    36    14    15 1   
    37    14    49 1   
    38    15    16 1   
    39    15    50 1   
    40    15    51 1   
    41    16    17 1   
    42    16    52 1   
    43    16    77 1   
    44    17    18 2   
    45    17    53 1   
    46    18    19 1   
    47    18    20 1   
    48    19    54 1   
    49    19    55 1   
    50    19    56 1   
    51    20    21 1   
    52    20    57 1   
    53    20    78 1   
    54    21    22 1   
    55    21    58 1   
    56    21    79 1   
    57    22    23 2   
    58    22    59 1   
    59    23    24 1   
    60    23    30 1   
    61    24    25 1   
    62    24    60 1   
    63    24    80 1   
    64    25    26 1   
    65    25    61 1   
    66    25    62 1   
    67    26    27 2   
    68    26    63 1   
    69    27    28 1   
    70    27    29 1   
    71    28    64 1   
    72    28    65 1   
    73    28    66 1   
    74    29    67 1   
    75    29    68 1   
    76    29    69 1   
    77    30    70 1   
    78    30    71 1   
    79    30    72 1   
@<TRIPOS>SUBSTRUCTURE
     1 SQL         1 TEMP              0 ****  ****    0 ROOT
