@<TRIPOS>MOLECULE
SQL
   80    79     1     0     0
SMALL
abcg2


@<TRIPOS>ATOM
      1 C1         -10.6380     1.6950    -1.8660 c3         1 SQL      -0.055900
      2 C2         -11.1890     0.3870    -1.3800 c2         1 SQL      -0.112400
      3 C3         -12.6890     0.3130    -1.3810 c3         1 SQL      -0.055900
      4 C4         -10.4500    -0.6500    -0.9770 c2         1 SQL      -0.224200
      5 C5          -8.9590    -0.7480    -0.9000 c3         1 SQL      -0.035700
      6 C6          -8.4710    -0.8890     0.5510 c3         1 SQL      -0.038200
      7 C7          -6.9790    -1.0580     0.6640 c2         1 SQL      -0.111400
      8 C8          -6.4380    -2.3440     0.1110 c3         1 SQL      -0.054900
      9 C9          -6.2330    -0.0990     1.2190 c2         1 SQL      -0.221700
     10 C10         -4.7470    -0.0620     1.3890 c3         1 SQL      -0.036200
     11 C11         -4.1030     1.0230     0.5090 c3         1 SQL      -0.038200
     12 C12         -2.6140     1.1350     0.7080 c2         1 SQL      -0.112400
     13 C13         -2.1870     1.7730     1.9980 c3         1 SQL      -0.054900
     14 C14         -1.7730     0.6770    -0.2240 c2         1 SQL      -0.220200
     15 C15         -0.2780     0.6550    -0.1890 c3         1 SQL      -0.036200
     16 C16          0.2730    -0.7770    -0.0860 c3         1 SQL      -0.036200
     17 C17          1.7680    -0.7980    -0.1390 c2         1 SQL      -0.220200
     18 C18          2.6210    -1.0280     0.8620 c2         1 SQL      -0.112400
     19 C19          2.2090    -1.3570     2.2680 c3         1 SQL      -0.054900
     20 C20          4.1070    -0.9460     0.6320 c3         1 SQL      -0.038200
     21 C21          4.7770     0.2020     1.4030 c3         1 SQL      -0.036200
     22 C22          6.2600     0.2070     1.2020 c2         1 SQL      -0.221700
     23 C23          7.0100     1.1200     0.5770 c2         1 SQL      -0.111400
     24 C24          8.4980     0.9190     0.4530 c3         1 SQL      -0.038200
     25 C25          8.9610     0.6590    -0.9900 c3         1 SQL      -0.035700
     26 C26         10.4470     0.4940    -1.0670 c2         1 SQL      -0.224200
     27 C27         11.1390    -0.6010    -1.3880 c2         1 SQL      -0.112400
     28 C28         12.6410    -0.5900    -1.3950 c3         1 SQL      -0.055900
     29 C29         10.5320    -1.9190    -1.7690 c3         1 SQL      -0.055900
     30 C30          6.4770     2.3780    -0.0430 c3         1 SQL      -0.054900
     31 H1          -9.5560     1.7700    -1.7880 hc         1 SQL       0.038533
     32 H2         -10.9100     1.8610    -2.9120 hc         1 SQL       0.038533
     33 H3         -11.0720     2.5240    -1.3010 hc         1 SQL       0.038533
     34 H4         -13.0890     0.4880    -2.3830 hc         1 SQL       0.038533
     35 H5         -13.0540    -0.6540    -1.0340 hc         1 SQL       0.038533
     36 H6         -13.1180     1.0870    -0.7390 hc         1 SQL       0.038533
     37 H7         -10.9790    -1.5390    -0.6400 ha         1 SQL       0.164000
     38 H8          -8.6340    -1.6210    -1.4750 hc         1 SQL       0.045700
     39 H9          -8.7910    -0.0080     1.1130 hc         1 SQL       0.044700
     40 H10         -6.5850    -2.4040    -0.9700 hc         1 SQL       0.039033
     41 H11         -5.3750    -2.4800     0.3000 hc         1 SQL       0.039033
     42 H12         -6.9660    -3.1980     0.5420 hc         1 SQL       0.039033
     43 H13         -6.7510     0.7890     1.5770 ha         1 SQL       0.164000
     44 H14         -4.5150     0.1400     2.4390 hc         1 SQL       0.045700
     45 H15         -4.3280     0.7990    -0.5360 hc         1 SQL       0.044700
     46 H16         -2.6480     1.2770     2.8540 hc         1 SQL       0.039033
     47 H17         -1.1110     1.7560     2.1540 hc         1 SQL       0.039033
     48 H18         -2.5120     2.8160     2.0350 hc         1 SQL       0.039033
     49 H19         -2.2110     0.2350    -1.1170 ha         1 SQL       0.164500
     50 H20          0.1110     1.1130    -1.1050 hc         1 SQL       0.044950
     51 H21          0.1200     1.2440     0.6380 hc         1 SQL       0.044950
     52 H22         -0.1070    -1.2350     0.8290 hc         1 SQL       0.044950
     53 H23          2.1920    -0.5510    -1.1110 ha         1 SQL       0.164500
     54 H24          2.7950    -2.1930     2.6540 hc         1 SQL       0.039033
     55 H25          2.3910    -0.5140     2.9400 hc         1 SQL       0.039033
     56 H26          1.1560    -1.6160     2.3590 hc         1 SQL       0.039033
     57 H27          4.5750    -1.8900     0.9370 hc         1 SQL       0.044700
     58 H28          4.3220     1.1460     1.0970 hc         1 SQL       0.045700
     59 H29          6.7720    -0.6650     1.6030 ha         1 SQL       0.164000
     60 H30          9.0210     1.8030     0.8350 hc         1 SQL       0.044700
     61 H31          8.4360    -0.2150    -1.3790 hc         1 SQL       0.045700
     62 H32          8.6660     1.5030    -1.6210 hc         1 SQL       0.045700
     63 H33         11.0140     1.3840    -0.8000 ha         1 SQL       0.164000
     64 H34         13.0390    -1.3430    -0.7100 hc         1 SQL       0.038533
     65 H35         13.0320    -0.8370    -2.3860 hc         1 SQL       0.038533
     66 H36         13.0470     0.3790    -1.1040 hc         1 SQL       0.038533
     67 H37          9.4470    -1.9370    -1.7010 hc         1 SQL       0.038533
     68 H38         10.8080    -2.1880    -2.7920 hc         1 SQL       0.038533
     69 H39         10.9200    -2.7150    -1.1280 hc         1 SQL       0.038533
     70 H40          6.9960     3.2520     0.3580 hc         1 SQL       0.039033
     71 H41          6.6430     2.3890    -1.1230 hc         1 SQL       0.039033
     72 H42          5.4110     2.5200     0.1210 hc         1 SQL       0.039033
     73 H43         -8.4710     0.1160    -1.3560 hc         1 SQL       0.045700
     74 H44         -8.9720    -1.7510     1.0070 hc         1 SQL       0.044700
     75 H45         -4.2870    -1.0230     1.1510 hc         1 SQL       0.045700
     76 H46         -4.5770     1.9850     0.7340 hc         1 SQL       0.044700
     77 H47         -0.1290    -1.3670    -0.9160 hc         1 SQL       0.044950
     78 H48          4.3150    -0.8230    -0.4340 hc         1 SQL       0.044700
     79 H49          4.5660     0.0890     2.4710 hc         1 SQL       0.045700
     80 H50          8.8110     0.0770     1.0760 hc         1 SQL       0.044700
@<TRIPOS>BOND
     1     1     2 1   
     2     1    31 1   
     3     1    32 1   
     4     1    33 1   
     5     2     3 1   
     6     2     4 2   
     7     3    34 1   
     8     3    35 1   
     9     3    36 1   
    10     4     5 1   
    11     4    37 1   
    12     5     6 1   
    13     5    38 1   
    14     5    73 1   
    15     6     7 1   
    16     6    39 1   
    17     6    74 1   
    18     7     8 1   
    19     7     9 2   
    20     8    40 1   
    21     8    41 1   
    22     8    42 1   
    23     9    10 1   
    24     9    43 1   
    25    10    11 1   
    26    10    44 1   
    27    10    75 1   
    28    11    12 1   
    29    11    45 1   
    30    11    76 1   
    31    12    13 1   
    32    12    14 2   
    33    13    46 1   
    34    13    47 1   
    35    13    48 1   
    36    14    15 1   
    37    14    49 1   
    38    15    16 1   
    39    15    50 1   
    40    15    51 1   
    41    16    17 1   
    42    16    52 1   
    43    16    77 1   
    44    17    18 2   
    45    17    53 1   
    46    18    19 1   
    47    18    20 1   
    48    19    54 1   
    49    19    55 1   
    50    19    56 1   
    51    20    21 1   
    52    20    57 1   
    53    20    78 1   
    54    21    22 1   
    55    21    58 1   
    56    21    79 1   
    57    22    23 2   
    58    22    59 1   
    59    23    24 1   
    60    23    30 1   
    61    24    25 1   
    62    24    60 1   
    63    24    80 1   
    64    25    26 1   
    65    25    61 1   
    66    25    62 1   
    67    26    27 2   
    68    26    63 1   
    69    27    28 1   
    70    27    29 1   
    71    28    64 1   
    72    28    65 1   
    73    28    66 1   
    74    29    67 1   
    75    29    68 1   
    76    29    69 1   
    77    30    70 1   
    78    30    71 1   
    79    30    72 1   
@<TRIPOS>SUBSTRUCTURE
     1 SQL         1 TEMP              0 ****  ****    0 ROOT
