@<TRIPOS>MOLECULE
SQO
   41    44     1     0     0
SMALL
No Charge or Current Charge


@<TRIPOS>ATOM
      1 N1           6.5810    -0.8220    -0.1640 ns         1 SQO      -0.435400
      2 N3           5.7720     1.4260     0.1320 nc         1 SQO      -0.615100
      3 C4           4.4820     0.8680     0.0700 ca         1 SQO       0.164400
      4 C5           4.2260    -0.5190    -0.1060 ca         1 SQO      -0.204600
      5 C6           5.3820    -1.4400    -0.2340 c          1 SQO       0.578600
      6 C7           2.9010    -1.0140    -0.1600 ca         1 SQO      -0.036000
      7 C8           1.8640    -0.0870    -0.0320 ca         1 SQO      -0.108200
      8 C10          3.3870     1.7540     0.1940 ca         1 SQO      -0.071000
      9 N12          0.5130    -0.2610    -0.0430 na         1 SQO      -0.353600
     10 C13         -0.0330     0.9930     0.1230 cc         1 SQO       0.679700
     11 C2           6.7510     0.5230     0.0080 cd         1 SQO       0.491800
     12 C9           2.0830     1.2490     0.1390 ca         1 SQO       0.150400
     13 N14          0.8820     1.9530     0.2390 nd         1 SQO      -0.659100
     14 N15         -1.3540     1.2590     0.1680 nu         1 SQO      -0.899400
     15 O16          5.2850    -2.6480    -0.3890 o          1 SQO      -0.549000
     16 C25         -2.4580     0.3060    -0.0530 c3         1 SQO       0.223800
     17 C11         -3.8540     0.9860     0.0500 c3         1 SQO       0.158800
     18 N6          -5.0210     0.1090    -0.2510 n3         1 SQO      -0.725600
     19 C12         -6.3030     0.8790    -0.3350 c6         1 SQO       0.128800
     20 C131        -7.5130    -0.0430    -0.6720 c6         1 SQO       0.152600
     21 O2          -7.6040    -1.1220     0.2880 os         1 SQO      -0.446000
     22 C14         -6.4050    -1.9310     0.3330 c6         1 SQO       0.152600
     23 C15         -5.1680    -1.0510     0.6880 c6         1 SQO       0.128800
     24 HN1          7.3900    -1.4200    -0.2480 hn         1 SQO       0.328500
     25 H7           2.6910    -2.0740    -0.2940 ha         1 SQO       0.138000
     26 H10          3.5520     2.8190     0.3300 ha         1 SQO       0.147000
     27 HN12        -0.0050    -1.1200    -0.1470 hn         1 SQO       0.359000
     28 H2           7.7960     0.8080     0.0360 h5         1 SQO       0.044800
     29 HN15        -1.5550     2.2540     0.2430 hn         1 SQO       0.511000
     30 H25         -2.3600    -0.1470    -1.0490 h1         1 SQO       0.045700
     31 H25A        -2.3940    -0.5000     0.6900 h1         1 SQO       0.045700
     32 H9          -3.9580     1.4090     1.0580 h1         1 SQO       0.044200
     33 H101        -3.8560     1.8320    -0.6510 h1         1 SQO       0.044200
     34 H11         -6.5060     1.3880     0.6190 h1         1 SQO       0.042700
     35 H12         -6.2300     1.6590    -1.1060 h1         1 SQO       0.042700
     36 H13         -8.4450     0.5390    -0.6510 h1         1 SQO       0.053200
     37 H14         -7.3940    -0.4630    -1.6810 h1         1 SQO       0.053200
     38 H15         -6.5310    -2.7220     1.0860 h1         1 SQO       0.053200
     39 H16         -6.2540    -2.4110    -0.6450 h1         1 SQO       0.053200
     40 H17         -4.2750    -1.6920     0.6600 h1         1 SQO       0.042700
     41 H18         -5.2780    -0.6940     1.7230 h1         1 SQO       0.042700
@<TRIPOS>BOND
     1     1     5 1   
     2     1    11 1   
     3     1    24 1   
     4     2     3 1   
     5     2    11 2   
     6     3     4 ar  
     7     3     8 ar  
     8     4     5 1   
     9     4     6 ar  
    10     5    15 2   
    11     6     7 ar  
    12     6    25 1   
    13     7     9 1   
    14     7    12 ar  
    15     8    12 ar  
    16     8    26 1   
    17     9    10 1   
    18     9    27 1   
    19    10    13 2   
    20    10    14 1   
    21    11    28 1   
    22    12    13 1   
    23    14    16 1   
    24    14    29 1   
    25    16    17 1   
    26    16    30 1   
    27    16    31 1   
    28    17    18 1   
    29    17    32 1   
    30    17    33 1   
    31    18    19 1   
    32    18    23 1   
    33    19    20 1   
    34    19    34 1   
    35    19    35 1   
    36    20    21 1   
    37    20    36 1   
    38    20    37 1   
    39    21    22 1   
    40    22    23 1   
    41    22    38 1   
    42    22    39 1   
    43    23    40 1   
    44    23    41 1   
@<TRIPOS>SUBSTRUCTURE
     1 SQO         1 TEMP              0 ****  ****    0 ROOT
