@<TRIPOS>MOLECULE
SQO
   41    44     1     0     0
SMALL
bcc


@<TRIPOS>ATOM
      1 N1           6.3620    -0.9550    -0.0600 ns         1 SQO      -0.502400
      2 N3           5.6440     1.2610     0.1240 nc         1 SQO      -0.615100
      3 C4           4.3380     0.8120     0.0620 ca         1 SQO       0.164400
      4 C5           4.0310    -0.5640    -0.0640 ca         1 SQO      -0.204600
      5 C6           5.1140    -1.5310    -0.1300 c          1 SQO       0.721100
      6 C7           2.7030    -1.0100    -0.1270 ca         1 SQO      -0.054000
      7 C8           1.7240    -0.0550    -0.0610 ca         1 SQO      -0.108200
      8 C10          3.3160     1.7630     0.1290 ca         1 SQO      -0.089000
      9 N12          0.3510    -0.1270    -0.0950 na         1 SQO      -0.303300
     10 C13         -0.1190     1.1480     0.0090 cc         1 SQO       0.679700
     11 C2           6.5710     0.3820     0.0610 cd         1 SQO       0.491800
     12 C9           2.0030     1.3310     0.0660 ca         1 SQO       0.150400
     13 N14          0.8420     2.0470     0.1050 nd         1 SQO      -0.659100
     14 N15         -1.4270     1.4390     0.0370 nu         1 SQO      -0.844200
     15 O16          4.9820    -2.7400    -0.2380 o          1 SQO      -0.624500
     16 C25         -2.4740     0.4940    -0.2870 c3         1 SQO       0.223800
     17 C11         -3.8160     1.0300     0.1920 c3         1 SQO       0.158800
     18 N6          -4.8930     0.1250    -0.1440 n3         1 SQO      -0.725600
     19 C12         -6.1800     0.7960    -0.2120 c6         1 SQO       0.128800
     20 C131        -7.2500    -0.1860    -0.6490 c6         1 SQO       0.129400
     21 O2          -7.3280    -1.2920     0.2240 os         1 SQO      -0.399600
     22 C14         -6.0830    -1.9490     0.3080 c6         1 SQO       0.129400
     23 C15         -4.9820    -1.0090     0.7600 c6         1 SQO       0.128800
     24 HN1          7.1660    -1.5670    -0.1040 hn         1 SQO       0.328500
     25 H7           2.4770    -2.0630    -0.2230 ha         1 SQO       0.156000
     26 H10          3.5620     2.8120     0.2260 ha         1 SQO       0.165000
     27 HN12        -0.1950    -0.9670    -0.2030 hn         1 SQO       0.308700
     28 H2           7.6110     0.6820     0.1040 h5         1 SQO       0.044800
     29 HN15        -1.6380     2.4200    -0.0660 hn         1 SQO       0.455800
     30 H25         -2.5270     0.2990    -1.3630 h1         1 SQO       0.045700
     31 H25A        -2.2570    -0.4540     0.2080 h1         1 SQO       0.045700
     32 H9          -3.7650     1.2430     1.2710 h1         1 SQO       0.044200
     33 H101        -4.0050     1.9840    -0.3080 h1         1 SQO       0.044200
     34 H11         -6.4650     1.2420     0.7560 h1         1 SQO       0.042700
     35 H12         -6.1270     1.6080    -0.9410 h1         1 SQO       0.042700
     36 H13         -8.2270     0.3010    -0.6500 h1         1 SQO       0.053200
     37 H14         -7.0380    -0.5210    -1.6740 h1         1 SQO       0.053200
     38 H15         -6.1920    -2.7660     1.0220 h1         1 SQO       0.053200
     39 H16         -5.8110    -2.3840    -0.6640 h1         1 SQO       0.053200
     40 H17         -4.0420    -1.5650     0.7670 h1         1 SQO       0.042700
     41 H18         -5.1730    -0.6820     1.7970 h1         1 SQO       0.042700
@<TRIPOS>BOND
     1     1     5 1   
     2     1    11 1   
     3     1    24 1   
     4     2     3 1   
     5     2    11 2   
     6     3     4 ar  
     7     3     8 ar  
     8     4     5 1   
     9     4     6 ar  
    10     5    15 2   
    11     6     7 ar  
    12     6    25 1   
    13     7     9 1   
    14     7    12 ar  
    15     8    12 ar  
    16     8    26 1   
    17     9    10 1   
    18     9    27 1   
    19    10    13 2   
    20    10    14 1   
    21    11    28 1   
    22    12    13 1   
    23    14    16 1   
    24    14    29 1   
    25    16    17 1   
    26    16    30 1   
    27    16    31 1   
    28    17    18 1   
    29    17    32 1   
    30    17    33 1   
    31    18    19 1   
    32    18    23 1   
    33    19    20 1   
    34    19    34 1   
    35    19    35 1   
    36    20    21 1   
    37    20    36 1   
    38    20    37 1   
    39    21    22 1   
    40    22    23 1   
    41    22    38 1   
    42    22    39 1   
    43    23    40 1   
    44    23    41 1   
@<TRIPOS>SUBSTRUCTURE
     1 SQO         1 TEMP              0 ****  ****    0 ROOT
