@<TRIPOS>MOLECULE
SQP
   26    27     1     0     0
SMALL
abcg2


@<TRIPOS>ATOM
      1 C4          45.6660   126.0350    23.6720 cp         1 SQP      -0.029000
      2 C5          44.6670   125.0580    23.5580 ca         1 SQP      -0.121000
      3 C6          46.1900   126.6740    22.4420 cp         1 SQP      -0.026000
      4 C7          46.3620   128.0590    22.3440 ca         1 SQP      -0.055000
      5 C8          46.8310   128.6530    21.1830 ca         1 SQP      -0.177000
      6 C10         46.9820   126.4900    20.1490 ca         1 SQP      -0.177000
      7 C           44.1310   124.4300    24.6740 ca         1 SQP      -0.152000
      8 O           48.3920   127.0400    24.8000 o          1 SQP      -0.716500
      9 C1          44.5770   124.7860    25.9430 ca         1 SQP      -0.130000
     10 C11         46.5070   125.9090    21.3150 ca         1 SQP      -0.055000
     11 C2          45.5550   125.7640    26.0740 ca         1 SQP      -0.102000
     12 C3          46.1200   126.3830    24.9570 ca         1 SQP      -0.088600
     13 C9          47.1530   127.8770    20.0610 ca         1 SQP       0.255000
     14 O1          46.9470   128.4360    25.8030 o          1 SQP      -0.716500
     15 H1          44.2950   124.8040    22.5730 ha         1 SQP       0.088000
     16 H2          46.1200   128.6870    23.1920 ha         1 SQP       0.123000
     17 H3          46.9500   129.7290    21.1350 ha         1 SQP       0.096000
     18 H4          47.2320   125.8680    19.2970 ha         1 SQP       0.096000
     19 H5          48.0070   129.3790    18.9820 hn         1 SQP       0.430500
     20 H6          48.1010   127.8730    18.2590 hn         1 SQP       0.430500
     21 H7          43.3600   123.6790    24.5530 ha         1 SQP       0.084000
     22 H8          44.1640   124.3090    26.8240 ha         1 SQP       0.085000
     23 H9          46.4000   124.8310    21.3560 ha         1 SQP       0.123000
     24 H10         45.9020   126.0480    27.0610 ha         1 SQP       0.114000
     25 N           47.5730   128.4730    18.8760 nv         1 SQP      -1.082000
     26 C12         47.2500   127.3770    25.1970 c          1 SQP       0.702600
@<TRIPOS>BOND
     1     1     2 ar  
     2     1     3 1   
     3     1    12 ar  
     4     2     7 ar  
     5     2    15 1   
     6     3     4 ar  
     7     3    10 ar  
     8     4     5 ar  
     9     4    16 1   
    10     5    13 ar  
    11     5    17 1   
    12     6    10 ar  
    13     6    13 ar  
    14     6    18 1   
    15     7     9 ar  
    16     7    21 1   
    17     8    26 1   
    18     9    11 ar  
    19     9    22 1   
    20    10    23 1   
    21    11    12 ar  
    22    11    24 1   
    23    12    26 1   
    24    13    25 1   
    25    14    26 1   
    26    19    25 1   
    27    20    25 1   
@<TRIPOS>SUBSTRUCTURE
     1 SQP         1 TEMP              0 ****  ****    0 ROOT
