@<TRIPOS>MOLECULE
SQP
   26    27     1     0     0
SMALL
No Charge or Current Charge


@<TRIPOS>ATOM
      1 C4          45.6860   126.0320    23.6860 cp         1 SQP      -0.029000
      2 C5          44.6370   125.0860    23.5630 ca         1 SQP      -0.121000
      3 C6          46.2230   126.6760    22.4470 cp         1 SQP      -0.026000
      4 C7          46.2770   128.0860    22.3120 ca         1 SQP      -0.055000
      5 C8          46.7570   128.6820    21.1320 ca         1 SQP      -0.177000
      6 C10         47.1290   126.4850    20.1720 ca         1 SQP      -0.177000
      7 C           44.0520   124.4880    24.6910 ca         1 SQP      -0.152000
      8 O           48.3480   127.0470    24.5500 o          1 SQP      -0.716500
      9 C1          44.5010   124.8210    25.9770 ca         1 SQP      -0.130000
     10 C11         46.6480   125.8870    21.3500 ca         1 SQP      -0.055000
     11 C2          45.5450   125.7460    26.1360 ca         1 SQP      -0.102000
     12 C3          46.1400   126.3430    25.0050 ca         1 SQP      -0.088600
     13 C9          47.1850   127.8820    20.0640 ca         1 SQP       0.255000
     14 O1          47.2150   128.1910    25.9770 o          1 SQP      -0.716500
     15 H1          44.2610   124.8290    22.5760 ha         1 SQP       0.088000
     16 H2          45.9340   128.7190    23.1280 ha         1 SQP       0.123000
     17 H3          46.7900   129.7650    21.0530 ha         1 SQP       0.096000
     18 H4          47.4540   125.8580    19.3460 ha         1 SQP       0.096000
     19 H5          47.8080   129.4680    18.8820 hn         1 SQP       0.430500
     20 H6          48.0760   127.8880    18.1900 hn         1 SQP       0.430500
     21 H7          43.2440   123.7700    24.5670 ha         1 SQP       0.084000
     22 H8          44.0470   124.3580    26.8510 ha         1 SQP       0.085000
     23 H9          46.6090   124.8020    21.4220 ha         1 SQP       0.123000
     24 H10         45.9040   125.9900    27.1330 ha         1 SQP       0.114000
     25 N           47.6510   128.4620    18.9160 nv         1 SQP      -1.082000
     26 C12         47.3130   127.2900    25.1550 c          1 SQP       0.702600
@<TRIPOS>BOND
     1     1     2 ar  
     2     1     3 1   
     3     1    12 ar  
     4     2     7 ar  
     5     2    15 1   
     6     3     4 ar  
     7     3    10 ar  
     8     4     5 ar  
     9     4    16 1   
    10     5    13 ar  
    11     5    17 1   
    12     6    10 ar  
    13     6    13 ar  
    14     6    18 1   
    15     7     9 ar  
    16     7    21 1   
    17     8    26 1   
    18     9    11 ar  
    19     9    22 1   
    20    10    23 1   
    21    11    12 ar  
    22    11    24 1   
    23    12    26 1   
    24    13    25 1   
    25    14    26 1   
    26    19    25 1   
    27    20    25 1   
@<TRIPOS>SUBSTRUCTURE
     1 SQP         1 TEMP              0 ****  ****    0 ROOT
