@<TRIPOS>MOLECULE
SQQ
   71    76     1     0     0
SMALL
bcc


@<TRIPOS>ATOM
      1 C2         -33.9110    -2.7030    18.6690 ca         1 SQQ       0.956900
      2 C4         -33.5390    -2.7320    16.4410 ca         1 SQQ       0.652200
      3 C5         -33.0520    -4.0450    16.5240 ca         1 SQQ      -0.434400
      4 C6         -33.0580    -4.6030    17.8050 ca         1 SQQ       0.533200
      5 CAG        -36.9860    -1.3820    22.7380 c3         1 SQQ       0.129700
      6 CAH        -35.7290    -0.4970    20.9250 ca         1 SQQ       0.103100
      7 CAI        -36.2130     0.7900    21.1210 ca         1 SQQ      -0.198000
      8 CAJ        -35.7810     1.8300    20.3050 ca         1 SQQ      -0.107000
      9 CAK        -34.8560     1.5890    19.3050 ca         1 SQQ      -0.144000
     10 CAL        -34.3540     0.3070    19.1130 ca         1 SQQ      -0.101000
     11 CAM        -34.7900    -0.7470    19.9060 ca         1 SQQ       0.127600
     12 CAQ        -32.6210    -4.7100    15.3480 cc         1 SQQ       0.022800
     13 CAR        -32.6750    -4.0850    14.1510 cd         1 SQQ      -0.165400
     14 CAS        -33.1290    -2.7030    14.0550 c          1 SQQ       0.721700
     15 CAU        -32.9420     0.2940    15.1610 c6         1 SQQ       0.310900
     16 CAV        -30.9930     0.9230    16.2540 c6         1 SQQ       0.113900
     17 CAW        -31.5410     2.3350    16.4570 c6         1 SQQ       0.090500
     18 CAX        -32.6040     2.5880    15.3950 c6         1 SQQ       0.113900
     19 CAZ        -32.2340    -4.7420    12.9070 ca         1 SQQ      -0.014800
     20 CBA        -30.8980    -5.0880    12.7220 ca         1 SQQ      -0.118000
     21 CBB        -30.4670    -5.7220    11.5690 ca         1 SQQ      -0.091000
     22 CBC        -31.3700    -6.0430    10.5570 cp         1 SQQ      -0.131500
     23 CBD        -32.7110    -5.7050    10.7300 ca         1 SQQ      -0.112000
     24 CBE        -33.1240    -5.0680    11.8870 ca         1 SQQ       0.047400
     25 CBF        -30.9070    -6.7260     9.3280 cp         1 SQQ       0.477800
     26 CBG        -31.7700    -7.4790     8.5380 ca         1 SQQ      -0.238300
     27 CBH        -31.2630    -8.0800     7.3960 ca         1 SQQ      -0.088000
     28 CBI        -29.9260    -7.9200     7.0840 ca         1 SQQ      -0.247300
     29 CBJ        -29.1230    -7.1660     7.9400 ca         1 SQQ       0.429600
     30 CBK        -27.6590    -6.9970     7.6700 c3         1 SQQ      -0.146400
     31 N1         -33.4680    -3.9600    18.8720 nb         1 SQQ      -0.785000
     32 N3         -33.9770    -2.0830    17.5030 nb         1 SQQ      -0.814000
     33 NAA        -34.3160    -2.0570    19.7840 nu         1 SQQ      -0.715300
     34 NAC        -33.5790    -2.1020    15.2260 n          1 SQQ      -0.420300
     35 NAD        -30.5380     3.3770    16.3980 n8         1 SQQ      -0.884800
     36 NAF        -29.6150    -6.5880     9.0290 nb         1 SQQ      -0.682000
     37 OBM        -33.1190    -2.0750    13.0100 o          1 SQQ      -0.603500
     38 OBN        -32.0460    -0.0240    16.1800 os         1 SQQ      -0.414600
     39 OBO        -33.5480     1.5320    15.3710 os         1 SQQ      -0.414600
     40 CL1        -34.8060    -4.7040    12.0710 cl         1 SQQ      -0.102400
     41 H1         -32.7060    -5.6200    17.9470 h4         1 SQQ       0.025100
     42 H2         -37.1250    -2.3590    23.1930 h1         1 SQQ       0.042033
     43 H3         -36.5830    -0.6960    23.4870 h1         1 SQQ       0.042033
     44 H4         -37.9560    -1.0080    22.4000 h1         1 SQQ       0.042033
     45 H5         -36.9360     0.9940    21.8990 ha         1 SQQ       0.135000
     46 H6         -36.1750     2.8250    20.4620 ha         1 SQQ       0.132000
     47 H7         -34.5110     2.3930    18.6680 ha         1 SQQ       0.139000
     48 H8         -33.6250     0.1330    18.3370 ha         1 SQQ       0.170000
     49 H9         -32.2670    -5.7320    15.4210 ha         1 SQQ       0.142000
     50 H12        -32.4020     0.3080    14.1990 h2         1 SQQ       0.044700
     51 H13        -30.3920     0.8970    15.3310 h1         1 SQQ       0.052450
     52 H14        -30.3460     0.6270    17.0810 h1         1 SQQ       0.052450
     53 H15        -32.0200     2.3830    17.4410 h1         1 SQQ       0.080700
     54 H16        -32.1240     2.6930    14.4100 h1         1 SQQ       0.052450
     55 H17        -33.1490     3.5100    15.6000 h1         1 SQQ       0.052450
     56 H18        -30.1830    -4.8470    13.4980 ha         1 SQQ       0.137000
     57 H19        -29.4220    -5.9730    11.4540 ha         1 SQQ       0.155000
     58 H20        -33.4410    -5.9230     9.9620 ha         1 SQQ       0.147000
     59 H21        -32.8080    -7.6130     8.8060 ha         1 SQQ       0.144000
     60 H22        -31.9090    -8.6710     6.7610 ha         1 SQQ       0.137000
     61 H23        -29.5030    -8.3730     6.1970 ha         1 SQQ       0.141000
     62 H24        -27.2620    -6.1370     8.2060 hc         1 SQQ       0.051700
     63 H25        -27.1040    -7.8790     7.9980 hc         1 SQQ       0.051700
     64 H26        -27.4610    -6.8700     6.6060 hc         1 SQQ       0.051700
     65 H27        -34.3340    -2.6300    20.6140 hn         1 SQQ       0.472800
     66 H28        -29.9030     3.2930    17.1820 hn         1 SQQ       0.345300
     67 H29        -29.9730     3.2760    15.5630 hn         1 SQQ       0.345300
     68 CAT        -34.0660    -0.7330    15.1440 c3         1 SQQ       0.101000
     69 OBL        -36.0900    -1.5670    21.6590 os         1 SQQ      -0.333900
     70 H10        -34.7260    -0.5590    15.9900 h1         1 SQQ       0.095200
     71 H11        -34.6450    -0.6200    14.2300 h1         1 SQQ       0.095200
@<TRIPOS>BOND
     1     1    31 ar  
     2     1    32 ar  
     3     1    33 1   
     4     2     3 ar  
     5     2    32 ar  
     6     2    34 1   
     7     3     4 ar  
     8     3    12 1   
     9     4    31 ar  
    10     4    41 1   
    11     5    42 1   
    12     5    43 1   
    13     5    44 1   
    14     5    69 1   
    15     6     7 ar  
    16     6    11 ar  
    17     6    69 1   
    18     7     8 ar  
    19     7    45 1   
    20     8     9 ar  
    21     8    46 1   
    22     9    10 ar  
    23     9    47 1   
    24    10    11 ar  
    25    10    48 1   
    26    11    33 1   
    27    12    13 2   
    28    12    49 1   
    29    13    14 1   
    30    13    19 1   
    31    14    34 1   
    32    14    37 2   
    33    15    38 1   
    34    15    39 1   
    35    15    50 1   
    36    15    68 1   
    37    16    17 1   
    38    16    38 1   
    39    16    51 1   
    40    16    52 1   
    41    17    18 1   
    42    17    35 1   
    43    17    53 1   
    44    18    39 1   
    45    18    54 1   
    46    18    55 1   
    47    19    20 ar  
    48    19    24 ar  
    49    20    21 ar  
    50    20    56 1   
    51    21    22 ar  
    52    21    57 1   
    53    22    23 ar  
    54    22    25 1   
    55    23    24 ar  
    56    23    58 1   
    57    24    40 1   
    58    25    26 ar  
    59    25    36 ar  
    60    26    27 ar  
    61    26    59 1   
    62    27    28 ar  
    63    27    60 1   
    64    28    29 ar  
    65    28    61 1   
    66    29    30 1   
    67    29    36 ar  
    68    30    62 1   
    69    30    63 1   
    70    30    64 1   
    71    33    65 1   
    72    34    68 1   
    73    35    66 1   
    74    35    67 1   
    75    68    70 1   
    76    68    71 1   
@<TRIPOS>SUBSTRUCTURE
     1 SQQ         1 TEMP              0 ****  ****    0 ROOT
