@<TRIPOS>MOLECULE
SQQ
   71    76     1     0     0
SMALL
No Charge or Current Charge


@<TRIPOS>ATOM
      1 C2         -33.8790    -2.6890    18.5540 ca         1 SQQ       0.430900
      2 C4         -33.5670    -2.6670    16.2830 ca         1 SQQ       0.323900
      3 C5         -33.0780    -3.9750    16.3450 ca         1 SQQ      -0.303800
      4 C6         -33.0300    -4.5860    17.6110 ca         1 SQQ       0.204900
      5 CAG        -36.6390    -1.6650    23.1880 c3         1 SQQ       0.152900
      6 CAH        -35.5460    -0.6090    21.2290 ca         1 SQQ       0.103100
      7 CAI        -36.0010     0.6790    21.5980 ca         1 SQQ      -0.180000
      8 CAJ        -35.6700     1.7970    20.8150 ca         1 SQQ      -0.089000
      9 CAK        -34.8780     1.6410    19.6680 ca         1 SQQ      -0.126000
     10 CAL        -34.4220     0.3650    19.2930 ca         1 SQQ      -0.083000
     11 CAM        -34.7610    -0.7740    20.0550 ca         1 SQQ       0.266000
     12 CAQ        -32.6540    -4.6890    15.1510 cc         1 SQQ      -0.027200
     13 CAR        -32.8190    -4.0710    13.9220 cd         1 SQQ      -0.165400
     14 CAS        -33.2340    -2.6290    13.8280 c          1 SQQ       0.579200
     15 CAU        -33.0300     0.5170    15.0230 c6         1 SQQ       0.357300
     16 CAV        -31.2470     1.3430    16.4150 c6         1 SQQ       0.137100
     17 CAW        -31.8680     2.7720    16.4070 c6         1 SQQ       0.090500
     18 CAX        -32.7800     2.9080    15.1510 c6         1 SQQ       0.137100
     19 CAZ        -32.3510    -4.7750    12.7040 ca         1 SQQ      -0.014800
     20 CBA        -31.1060    -5.4370    12.7300 ca         1 SQQ      -0.100000
     21 CBB        -30.6130    -6.0980    11.5940 ca         1 SQQ      -0.073000
     22 CBC        -31.3540    -6.1490    10.3840 cp         1 SQQ      -0.131500
     23 CBD        -32.6200    -5.5060    10.3800 ca         1 SQQ      -0.094000
     24 CBE        -33.1160    -4.8360    11.5120 ca         1 SQQ       0.139000
     25 CBF        -30.8230    -6.8630     9.1680 cp         1 SQQ       0.412500
     26 CBG        -31.6700    -7.3560     8.1410 ca         1 SQQ      -0.155000
     27 CBH        -31.1180    -8.0130     7.0300 ca         1 SQQ      -0.070000
     28 CBI        -29.7250    -8.1620     6.9770 ca         1 SQQ      -0.164000
     29 CBJ        -28.9440    -7.6570     8.0310 ca         1 SQQ       0.364300
     30 CBK        -27.4340    -7.8020     8.0300 c3         1 SQQ      -0.146400
     31 N1         -33.4340    -3.9430    18.7210 nb         1 SQQ      -0.259000
     32 N3         -33.9790    -2.0260    17.3930 nb         1 SQQ      -0.288000
     33 NAA        -34.3150    -2.0670    19.7140 nu         1 SQQ      -0.908900
     34 NAC        -33.6300    -1.9960    15.0240 n          1 SQQ      -0.353300
     35 NAD        -30.8300     3.8470    16.4670 n8         1 SQQ      -0.995200
     36 NAF        -29.4810    -7.0300     9.0990 nb         1 SQQ      -0.682000
     37 OBM        -33.1940    -2.0010    12.7770 o          1 SQQ      -0.528000
     38 OBN        -32.2850     0.3550    16.2460 os         1 SQQ      -0.461000
     39 OBO        -33.6960     1.7940    15.0800 os         1 SQQ      -0.461000
     40 Cl1        -34.7730    -4.2250    11.4300 cl         1 SQQ      -0.194000
     41 H1         -32.6680    -5.6050    17.7390 h4         1 SQQ       0.025100
     42 H2         -36.7530    -2.6650    23.6250 h1         1 SQQ       0.042033
     43 H3         -36.1600    -1.0200    23.9360 h1         1 SQQ       0.042033
     44 H4         -37.6410    -1.2720    22.9740 h1         1 SQQ       0.042033
     45 H5         -36.6080     0.8330    22.4860 ha         1 SQQ       0.117000
     46 H6         -36.0200     2.7860    21.1020 ha         1 SQQ       0.114000
     47 H7         -34.6110     2.5090    19.0690 ha         1 SQQ       0.121000
     48 H8         -33.7890     0.2760    18.4180 ha         1 SQQ       0.152000
     49 H9         -32.2830    -5.7110    15.2090 ha         1 SQQ       0.192000
     50 H12        -32.3660     0.4550    14.1480 h2         1 SQQ       0.044700
     51 H13        -30.5160     1.2360    15.6010 h1         1 SQQ       0.052450
     52 H14        -30.7300     1.1570    17.3680 h1         1 SQQ       0.052450
     53 H15        -32.5050     2.8740    17.3000 h1         1 SQQ       0.080700
     54 H16        -32.1700     2.9300    14.2350 h1         1 SQQ       0.052450
     55 H17        -33.3560     3.8430    15.2010 h1         1 SQQ       0.052450
     56 H18        -30.4930    -5.4130    13.6280 ha         1 SQQ       0.119000
     57 H19        -29.6400    -6.5830    11.6580 ha         1 SQQ       0.137000
     58 H20        -33.2400    -5.5220     9.4880 ha         1 SQQ       0.129000
     59 H21        -32.7460    -7.2460     8.2100 ha         1 SQQ       0.126000
     60 H22        -31.7530    -8.4000     6.2350 ha         1 SQQ       0.119000
     61 H23        -29.2560    -8.6670     6.1370 ha         1 SQQ       0.123000
     62 H24        -26.9460    -6.8990     8.4140 hc         1 SQQ       0.051700
     63 H25        -27.1260    -8.6460     8.6570 hc         1 SQQ       0.051700
     64 H26        -27.0520    -7.9790     7.0180 hc         1 SQQ       0.051700
     65 H27        -34.4490    -2.7310    20.4780 hn         1 SQQ       0.528000
     66 H28        -30.2610     3.7260    17.3140 hn         1 SQQ       0.400500
     67 H29        -30.1540     3.7160    15.7030 hn         1 SQQ       0.400500
     68 CAT        -34.1260    -0.5850    14.9440 c3         1 SQQ       0.101000
     69 OBL        -35.8480    -1.7330    21.9880 os         1 SQQ      -0.357100
     70 H10        -34.8580    -0.3930    15.7370 h1         1 SQQ       0.095200
     71 H11        -34.6690    -0.4430    14.0010 h1         1 SQQ       0.095200
@<TRIPOS>BOND
     1     1    31 ar  
     2     1    32 ar  
     3     1    33 1   
     4     2     3 ar  
     5     2    32 ar  
     6     2    34 1   
     7     3     4 ar  
     8     3    12 1   
     9     4    31 ar  
    10     4    41 1   
    11     5    42 1   
    12     5    43 1   
    13     5    44 1   
    14     5    69 1   
    15     6     7 ar  
    16     6    11 ar  
    17     6    69 1   
    18     7     8 ar  
    19     7    45 1   
    20     8     9 ar  
    21     8    46 1   
    22     9    10 ar  
    23     9    47 1   
    24    10    11 ar  
    25    10    48 1   
    26    11    33 1   
    27    12    13 2   
    28    12    49 1   
    29    13    14 1   
    30    13    19 1   
    31    14    34 1   
    32    14    37 2   
    33    15    38 1   
    34    15    39 1   
    35    15    50 1   
    36    15    68 1   
    37    16    17 1   
    38    16    38 1   
    39    16    51 1   
    40    16    52 1   
    41    17    18 1   
    42    17    35 1   
    43    17    53 1   
    44    18    39 1   
    45    18    54 1   
    46    18    55 1   
    47    19    20 ar  
    48    19    24 ar  
    49    20    21 ar  
    50    20    56 1   
    51    21    22 ar  
    52    21    57 1   
    53    22    23 ar  
    54    22    25 1   
    55    23    24 ar  
    56    23    58 1   
    57    24    40 1   
    58    25    26 ar  
    59    25    36 ar  
    60    26    27 ar  
    61    26    59 1   
    62    27    28 ar  
    63    27    60 1   
    64    28    29 ar  
    65    28    61 1   
    66    29    30 1   
    67    29    36 ar  
    68    30    62 1   
    69    30    63 1   
    70    30    64 1   
    71    33    65 1   
    72    34    68 1   
    73    35    66 1   
    74    35    67 1   
    75    68    70 1   
    76    68    71 1   
@<TRIPOS>SUBSTRUCTURE
     1 SQQ         1 TEMP              0 ****  ****    0 ROOT
