@<TRIPOS>MOLECULE
SQR
   66    68     1     0     0
SMALL
No Charge or Current Charge


@<TRIPOS>ATOM
      1 C15         20.3810    -8.7950    -0.9150 c6         1 SQR       0.350300
      2 C17         22.5780    -9.7630    -0.3710 c6         1 SQR       0.156300
      3 C22         25.2240   -11.0590    -0.4270 c6         1 SQR       0.380300
      4 C24         27.3080   -11.7500    -1.5360 ca         1 SQR       0.199100
      5 C26         27.3850   -13.3880    -3.3490 ca         1 SQR      -0.010000
      6 C02         18.3350    -6.6880    -0.8780 c6         1 SQR       0.119300
      7 C03         18.0680    -8.0050    -1.6790 c6         1 SQR       0.202300
      8 C09         18.8720    -9.1820    -1.0200 c6         1 SQR       0.145300
      9 C11         19.8760    -6.4520    -0.7300 c6         1 SQR       0.179300
     10 C12         20.2120    -5.1770     0.1150 c3         1 SQR       0.169600
     11 C18         23.1700   -10.5240    -1.6050 c6         1 SQR       0.157300
     12 C19         22.7030    -9.9900    -2.9980 c3         1 SQR       0.165600
     13 C25         26.6520   -12.6580    -2.3960 ca         1 SQR      -0.177000
     14 C27         28.7850   -13.2230    -3.4540 ca         1 SQR      -0.219200
     15 C31         29.4380   -12.3160    -2.5880 ca         1 SQR      -0.010000
     16 C32         28.6980   -11.5900    -1.6390 ca         1 SQR      -0.177000
     17 C33         24.7820   -10.2970     0.8570 c6         1 SQR       0.041700
     18 C36         27.0430   -11.2770     3.8460 c3         1 SQR      -0.177100
     19 C38         23.2290   -10.3240     0.9370 c6         1 SQR       0.163300
     20 N28         29.5670   -14.0000    -4.4670 no         1 SQR       0.681200
     21 N34         25.3930   -10.8690     2.0890 ns         1 SQR      -0.515900
     22 O01         17.6420    -6.7600     0.3900 oh         1 SQR      -0.732000
     23 O04         16.6450    -8.2880    -1.6410 os         1 SQR      -0.599700
     24 O10         18.6920   -10.4370    -1.7260 oh         1 SQR      -0.692000
     25 O13         21.6270    -4.9010     0.1990 oh         1 SQR      -0.727000
     26 O14         20.5150    -7.6030    -0.1230 os         1 SQR      -0.460000
     27 O16         21.1270    -9.8630    -0.2910 os         1 SQR      -0.454000
     28 O20         23.0480    -8.6080    -3.2320 oh         1 SQR      -0.716000
     29 O21         24.6170   -10.4440    -1.5780 os         1 SQR      -0.463000
     30 O29         30.7910   -13.8230    -4.5230 o          1 SQR      -0.408500
     31 O30         28.9550   -14.7830    -5.2040 o          1 SQR      -0.408500
     32 O37         27.1640    -9.4460     2.2820 o          1 SQR      -0.585100
     33 O39         22.7820    -9.6070     2.1050 oh         1 SQR      -0.672000
     34 S05         15.7580    -7.9740    -2.9880 s6         1 SQR       1.516300
     35 H1          20.7690    -8.6050    -1.9240 h2         1 SQR       0.036700
     36 H2          22.8600    -8.7020    -0.4520 h1         1 SQR       0.110700
     37 H3          24.9040   -12.1080    -0.3480 h2         1 SQR       0.027700
     38 H4          26.8540   -14.0800    -4.0020 ha         1 SQR       0.150000
     39 H5          17.9300    -5.8510    -1.4690 h1         1 SQR       0.080700
     40 H6          18.4130    -7.8840    -2.7180 h1         1 SQR       0.064700
     41 H7          18.5030    -9.2960     0.0100 h1         1 SQR       0.074700
     42 H8          20.3050    -6.3040    -1.7320 h1         1 SQR       0.048700
     43 H9          19.6900    -4.3230    -0.3380 h1         1 SQR       0.042200
     44 H10         19.7960    -5.3130     1.1230 h1         1 SQR       0.042200
     45 H11         22.8820   -11.5840    -1.5430 h1         1 SQR       0.041700
     46 H12         21.6200   -10.1420    -3.0920 h1         1 SQR       0.044700
     47 H13         23.1720   -10.6250    -3.7630 h1         1 SQR       0.044700
     48 H14         25.5790   -12.8110    -2.3450 ha         1 SQR       0.143000
     49 H15         30.5150   -12.1670    -2.6420 ha         1 SQR       0.150000
     50 H16         29.2060   -10.8960    -0.9750 ha         1 SQR       0.143000
     51 H17         25.1080    -9.2510     0.7470 h1         1 SQR       0.131700
     52 H18         26.2380   -11.3480     4.5870 hc         1 SQR       0.060367
     53 H19         27.1510   -12.3170     3.5190 hc         1 SQR       0.060367
     54 H20         27.9690   -10.8940     4.2900 hc         1 SQR       0.060367
     55 H21         22.9220   -11.3770     1.0290 h1         1 SQR       0.030700
     56 H22         24.9970   -11.7200     2.4750 hn         1 SQR       0.306500
     57 H23         16.8300    -7.2900     0.1890 ho         1 SQR       0.533000
     58 H24         19.2570   -11.0930    -1.2580 ho         1 SQR       0.489000
     59 H25         21.7360    -4.1460     0.8230 ho         1 SQR       0.493000
     60 H26         23.0080    -8.4590    -4.2060 ho         1 SQR       0.511000
     61 H27         23.3850    -9.8630     2.8380 ho         1 SQR       0.499000
     62 C35         26.5640   -10.4360     2.6710 c          1 SQR       0.601100
     63 O23         26.6530   -11.0090    -0.5730 os         1 SQR      -0.315100
     64 O06         16.0450    -6.5630    -3.2780 o          1 SQR      -0.709867
     65 O07         14.3760    -8.2410    -2.5660 o          1 SQR      -0.709867
     66 O08         16.2800    -8.9110    -3.9930 o          1 SQR      -0.709867
@<TRIPOS>BOND
     1     1     8 1   
     2     1    26 1   
     3     1    27 1   
     4     1    35 1   
     5     2    11 1   
     6     2    19 1   
     7     2    27 1   
     8     2    36 1   
     9     3    17 1   
    10     3    29 1   
    11     3    37 1   
    12     3    63 1   
    13     4    13 ar  
    14     4    16 ar  
    15     4    63 1   
    16     5    13 ar  
    17     5    14 ar  
    18     5    38 1   
    19     6     7 1   
    20     6     9 1   
    21     6    22 1   
    22     6    39 1   
    23     7     8 1   
    24     7    23 1   
    25     7    40 1   
    26     8    24 1   
    27     8    41 1   
    28     9    10 1   
    29     9    26 1   
    30     9    42 1   
    31    10    25 1   
    32    10    43 1   
    33    10    44 1   
    34    11    12 1   
    35    11    29 1   
    36    11    45 1   
    37    12    28 1   
    38    12    46 1   
    39    12    47 1   
    40    13    48 1   
    41    14    15 ar  
    42    14    20 1   
    43    15    16 ar  
    44    15    49 1   
    45    16    50 1   
    46    17    19 1   
    47    17    21 1   
    48    17    51 1   
    49    18    52 1   
    50    18    53 1   
    51    18    54 1   
    52    18    62 1   
    53    19    33 1   
    54    19    55 1   
    55    20    30 1   
    56    20    31 1   
    57    21    56 1   
    58    21    62 1   
    59    22    57 1   
    60    23    34 1   
    61    24    58 1   
    62    25    59 1   
    63    28    60 1   
    64    32    62 2   
    65    33    61 1   
    66    34    64 1   
    67    34    65 1   
    68    34    66 1   
@<TRIPOS>SUBSTRUCTURE
     1 SQR         1 TEMP              0 ****  ****    0 ROOT
