@<TRIPOS>MOLECULE
SQR
   66    68     1     0     0
SMALL
abcg2


@<TRIPOS>ATOM
      1 C15         20.5150    -8.7020    -1.0090 c6         1 SQR       0.350300
      2 C17         22.6920    -9.6200    -0.6000 c6         1 SQR       0.156300
      3 C22         25.2200   -10.9960    -0.6400 c6         1 SQR       0.380300
      4 C24         27.2670   -11.7660    -1.6000 ca         1 SQR       0.199100
      5 C26         27.3890   -13.4870    -3.2710 ca         1 SQR      -0.010000
      6 C02         18.3590    -6.8260    -0.6950 c6         1 SQR       0.119300
      7 C03         18.1910    -8.0480    -1.6040 c6         1 SQR       0.202300
      8 C09         19.0820    -9.2030    -1.1780 c6         1 SQR       0.145300
      9 C11         19.8400    -6.4980    -0.5370 c6         1 SQR       0.179300
     10 C12         20.0860    -5.3610     0.4290 c3         1 SQR       0.169600
     11 C18         23.2260   -10.4470    -1.7790 c6         1 SQR       0.157300
     12 C19         22.7470    -9.9870    -3.1370 c3         1 SQR       0.165600
     13 C25         26.6270   -12.6590    -2.4650 ca         1 SQR      -0.177000
     14 C27         28.7760   -13.4140    -3.2160 ca         1 SQR      -0.219200
     15 C31         29.4220   -12.5210    -2.3630 ca         1 SQR      -0.010000
     16 C32         28.6640   -11.6990    -1.5560 ca         1 SQR      -0.177000
     17 C33         24.8200   -10.2250     0.6130 c6         1 SQR       0.041700
     18 C36         26.7680   -11.1010     3.7600 c3         1 SQR      -0.177100
     19 C38         23.2910   -10.1250     0.7060 c6         1 SQR       0.163300
     20 N28         29.5680   -14.2810    -4.0690 no         1 SQR       0.681200
     21 N34         25.3570   -10.8380     1.8070 ns         1 SQR      -0.515900
     22 O01         17.7960    -7.0660     0.5920 oh         1 SQR      -0.732000
     23 O04         16.8260    -8.5020    -1.5440 os         1 SQR      -0.599700
     24 O10         19.0130   -10.2140    -2.1730 oh         1 SQR      -0.692000
     25 O13         21.4460    -4.9470     0.3010 oh         1 SQR      -0.727000
     26 O14         20.5620    -7.6410    -0.0750 os         1 SQR      -0.460000
     27 O16         21.2710    -9.7660    -0.5190 os         1 SQR      -0.454000
     28 O20         23.0480    -8.6030    -3.3110 oh         1 SQR      -0.716000
     29 O21         24.6570   -10.3970    -1.7800 os         1 SQR      -0.463000
     30 O29         30.7930   -14.1990    -4.0110 o          1 SQR      -0.408500
     31 O30         28.9850   -15.0630    -4.8160 o          1 SQR      -0.408500
     32 O37         26.8050    -9.1720     2.3390 o          1 SQR      -0.585100
     33 O39         22.9160    -9.2400     1.7490 oh         1 SQR      -0.672000
     34 S05         15.7990    -8.0070    -2.7240 s6         1 SQR       1.516300
     35 H1          20.9090    -8.3490    -1.9720 h2         1 SQR       0.036700
     36 H2          22.9550    -8.5700    -0.7320 h1         1 SQR       0.110700
     37 H3          24.9080   -12.0470    -0.5670 h2         1 SQR       0.027700
     38 H4          26.9100   -14.1810    -3.9450 ha         1 SQR       0.150000
     39 H5          17.8620    -5.9760    -1.1710 h1         1 SQR       0.080700
     40 H6          18.4440    -7.7720    -2.6310 h1         1 SQR       0.064700
     41 H7          18.7440    -9.5860    -0.2090 h1         1 SQR       0.074700
     42 H8          20.2220    -6.2040    -1.5240 h1         1 SQR       0.048700
     43 H9          19.4040    -4.5400     0.1810 h1         1 SQR       0.042200
     44 H10         19.8740    -5.6950     1.4470 h1         1 SQR       0.042200
     45 H11         22.8980   -11.4870    -1.6510 h1         1 SQR       0.041700
     46 H12         21.6720   -10.1680    -3.2100 h1         1 SQR       0.044700
     47 H13         23.2480   -10.5930    -3.8970 h1         1 SQR       0.044700
     48 H14         25.5510   -12.7010    -2.5300 ha         1 SQR       0.143000
     49 H15         30.5000   -12.4780    -2.3350 ha         1 SQR       0.150000
     50 H16         29.1340   -10.9980    -0.8790 ha         1 SQR       0.143000
     51 H17         25.2410    -9.2230     0.5390 h1         1 SQR       0.131700
     52 H18         26.5420   -10.5470     4.6720 hc         1 SQR       0.060367
     53 H19         26.2900   -12.0780     3.8050 hc         1 SQR       0.060367
     54 H20         27.8500   -11.2300     3.7080 hc         1 SQR       0.060367
     55 H21         22.8830   -11.1260     0.8970 h1         1 SQR       0.030700
     56 H22         25.0320   -11.7620     2.0470 hn         1 SQR       0.306500
     57 H23         16.9100    -7.4260     0.4490 ho         1 SQR       0.533000
     58 H24         19.5720   -10.9470    -1.8830 ho         1 SQR       0.489000
     59 H25         21.6350    -4.3140     1.0040 ho         1 SQR       0.493000
     60 H26         22.6950    -8.3230    -4.1640 ho         1 SQR       0.511000
     61 H27         23.2200    -9.6160     2.5860 ho         1 SQR       0.499000
     62 C35         26.3240   -10.2780     2.5750 c          1 SQR       0.601100
     63 O23         26.6190   -10.9180    -0.7630 os         1 SQR      -0.315100
     64 O06         15.8320    -6.5490    -2.6980 o          1 SQR      -0.709867
     65 O07         14.5510    -8.5930    -2.2670 o          1 SQR      -0.709867
     66 O08         16.3210    -8.5770    -3.9600 o          1 SQR      -0.709867
@<TRIPOS>BOND
     1     1     8 1   
     2     1    26 1   
     3     1    27 1   
     4     1    35 1   
     5     2    11 1   
     6     2    19 1   
     7     2    27 1   
     8     2    36 1   
     9     3    17 1   
    10     3    29 1   
    11     3    37 1   
    12     3    63 1   
    13     4    13 ar  
    14     4    16 ar  
    15     4    63 1   
    16     5    13 ar  
    17     5    14 ar  
    18     5    38 1   
    19     6     7 1   
    20     6     9 1   
    21     6    22 1   
    22     6    39 1   
    23     7     8 1   
    24     7    23 1   
    25     7    40 1   
    26     8    24 1   
    27     8    41 1   
    28     9    10 1   
    29     9    26 1   
    30     9    42 1   
    31    10    25 1   
    32    10    43 1   
    33    10    44 1   
    34    11    12 1   
    35    11    29 1   
    36    11    45 1   
    37    12    28 1   
    38    12    46 1   
    39    12    47 1   
    40    13    48 1   
    41    14    15 ar  
    42    14    20 1   
    43    15    16 ar  
    44    15    49 1   
    45    16    50 1   
    46    17    19 1   
    47    17    21 1   
    48    17    51 1   
    49    18    52 1   
    50    18    53 1   
    51    18    54 1   
    52    18    62 1   
    53    19    33 1   
    54    19    55 1   
    55    20    30 1   
    56    20    31 1   
    57    21    56 1   
    58    21    62 1   
    59    22    57 1   
    60    23    34 1   
    61    24    58 1   
    62    25    59 1   
    63    28    60 1   
    64    32    62 2   
    65    33    61 1   
    66    34    64 1   
    67    34    65 1   
    68    34    66 1   
@<TRIPOS>SUBSTRUCTURE
     1 SQR         1 TEMP              0 ****  ****    0 ROOT
