@<TRIPOS>MOLECULE
SQS
   58    57     1     0     0
SMALL
bcc


@<TRIPOS>ATOM
      1 C4           5.4870    -0.8700     0.4220 c2         1 SQS      -0.198200
      2 C5           4.3960    -1.3620    -0.1570 c2         1 SQS      -0.163200
      3 C6           3.1030    -1.6330     0.5440 c3         1 SQS      -0.042200
      4 C7           1.9460    -0.8170    -0.0310 c3         1 SQS      -0.072400
      5 C8           0.5950    -1.1910     0.5660 c3         1 SQS      -0.074400
      6 C10         -1.9230    -0.8040     0.5150 c3         1 SQS      -0.074400
      7 C13         -5.5880     0.3360    -0.2240 c3         1 SQS      -0.074400
      8 C15         -8.1050     0.6710    -0.3840 c3         1 SQS      -0.074400
      9 C17        -10.6230     0.9930    -0.5660 c3         1 SQS      -0.075400
     10 O3           6.6920    -0.7170    -1.6780 oh         1 SQS      -0.594800
     11 C3           6.7830    -0.5740    -0.2810 c3         1 SQS       0.183300
     12 C2           7.3370     0.8030     0.1320 c3         1 SQS       0.129500
     13 N2           7.5760     0.7910     1.5670 n8         1 SQS      -0.881800
     14 C1           8.5720     1.1660    -0.6890 c3         1 SQS       0.100400
     15 O1           9.0360     2.4260    -0.2520 oh         1 SQS      -0.610800
     16 C9          -0.5590    -0.3920    -0.0260 c3         1 SQS      -0.074400
     17 C11         -3.0730    -0.0160    -0.1000 c3         1 SQS      -0.074400
     18 C12         -4.4430    -0.4430     0.4110 c3         1 SQS      -0.074400
     19 C14         -6.9630    -0.0970     0.2700 c3         1 SQS      -0.074400
     20 C16         -9.4820     0.2320     0.0970 c3         1 SQS      -0.075400
     21 C18        -11.9960     0.5430    -0.0850 c3         1 SQS      -0.088100
     22 H1           5.4780    -0.6480     1.4840 ha         1 SQS       0.147000
     23 H2           4.4040    -1.5900    -1.2210 ha         1 SQS       0.119000
     24 H3           2.8610    -2.6980     0.4460 hc         1 SQS       0.045700
     25 H4           3.2040    -1.4350     1.6150 hc         1 SQS       0.045700
     26 H5           2.1390     0.2490     0.1300 hc         1 SQS       0.038700
     27 H6           1.9100    -0.9590    -1.1170 hc         1 SQS       0.038700
     28 H7           0.4180    -2.2600     0.4040 hc         1 SQS       0.037700
     29 H8           0.6200    -1.0480     1.6510 hc         1 SQS       0.037700
     30 H9          -2.0740    -1.8730     0.3300 hc         1 SQS       0.037200
     31 H10         -1.9380    -0.6800     1.6040 hc         1 SQS       0.037200
     32 H11         -5.4540     1.4050    -0.0280 hc         1 SQS       0.036700
     33 H12         -5.5420     0.2200    -1.3130 hc         1 SQS       0.036700
     34 H13         -7.9790     1.7430    -0.1930 hc         1 SQS       0.036700
     35 H14         -8.0460     0.5500    -1.4710 hc         1 SQS       0.036700
     36 H15        -10.5020     2.0650    -0.3770 hc         1 SQS       0.036700
     37 H16        -10.5560     0.8690    -1.6520 hc         1 SQS       0.036700
     38 H17          6.0180    -0.1080    -2.0000 ho         1 SQS       0.403000
     39 H18          7.5270    -1.3210     0.0350 h1         1 SQS       0.075700
     40 H19          6.5610     1.5560    -0.0650 h1         1 SQS       0.071700
     41 H20          8.3270     0.1420     1.7780 hn         1 SQS       0.347300
     42 H21          7.9070     1.7000     1.8630 hn         1 SQS       0.347300
     43 H23          9.3340     0.3850    -0.5450 h1         1 SQS       0.030200
     44 H24          8.3290     1.1850    -1.7560 h1         1 SQS       0.030200
     45 H25          9.8220     2.6480    -0.7570 ho         1 SQS       0.409000
     46 H26         -0.4010     0.6760     0.1630 hc         1 SQS       0.037200
     47 H27         -0.5550    -0.5080    -1.1160 hc         1 SQS       0.037200
     48 H28         -2.9300     1.0520     0.0970 hc         1 SQS       0.037200
     49 H29         -3.0430    -0.1290    -1.1900 hc         1 SQS       0.037200
     50 H30         -4.4810    -0.3220     1.5000 hc         1 SQS       0.037200
     51 H31         -4.5820    -1.5130     0.2210 hc         1 SQS       0.037200
     52 H32         -7.0930    -1.1690     0.0830 hc         1 SQS       0.037200
     53 H33         -7.0170     0.0280     1.3570 hc         1 SQS       0.037200
     54 H34         -9.6060    -0.8410    -0.0890 hc         1 SQS       0.036700
     55 H35         -9.5460     0.3590     1.1840 hc         1 SQS       0.036700
     56 H36        -12.1560    -0.5170    -0.2900 hc         1 SQS       0.031367
     57 H37        -12.1030     0.6880     0.9920 hc         1 SQS       0.031367
     58 H38        -12.7960     1.0990    -0.5740 hc         1 SQS       0.031367
@<TRIPOS>BOND
     1     1     2 2   
     2     1    11 1   
     3     1    22 1   
     4     2     3 1   
     5     2    23 1   
     6     3     4 1   
     7     3    24 1   
     8     3    25 1   
     9     4     5 1   
    10     4    26 1   
    11     4    27 1   
    12     5    16 1   
    13     5    28 1   
    14     5    29 1   
    15     6    16 1   
    16     6    17 1   
    17     6    30 1   
    18     6    31 1   
    19     7    18 1   
    20     7    19 1   
    21     7    32 1   
    22     7    33 1   
    23     8    19 1   
    24     8    20 1   
    25     8    34 1   
    26     8    35 1   
    27     9    20 1   
    28     9    21 1   
    29     9    36 1   
    30     9    37 1   
    31    10    11 1   
    32    10    38 1   
    33    11    12 1   
    34    11    39 1   
    35    12    13 1   
    36    12    14 1   
    37    12    40 1   
    38    13    41 1   
    39    13    42 1   
    40    14    15 1   
    41    14    43 1   
    42    14    44 1   
    43    15    45 1   
    44    16    46 1   
    45    16    47 1   
    46    17    18 1   
    47    17    48 1   
    48    17    49 1   
    49    18    50 1   
    50    18    51 1   
    51    19    52 1   
    52    19    53 1   
    53    20    54 1   
    54    20    55 1   
    55    21    56 1   
    56    21    57 1   
    57    21    58 1   
@<TRIPOS>SUBSTRUCTURE
     1 SQS         1 TEMP              0 ****  ****    0 ROOT
