@<TRIPOS>MOLECULE
SQS
   58    57     1     0     0
SMALL
No Charge or Current Charge


@<TRIPOS>ATOM
      1 C4           5.4150    -0.1530     0.2460 c2         1 SQS      -0.248200
      2 C5           4.4270    -0.9780    -0.1420 c2         1 SQS      -0.213200
      3 C6           3.1260    -1.1910     0.6050 c3         1 SQS      -0.042200
      4 C7           1.9050    -0.7110    -0.2070 c3         1 SQS      -0.072400
      5 C8           0.5650    -0.9150     0.5340 c3         1 SQS      -0.074400
      6 C10         -1.9960    -0.6380     0.4610 c3         1 SQS      -0.074400
      7 C13         -5.7770     0.1210    -0.4260 c3         1 SQS      -0.074400
      8 C15         -8.3370     0.3990    -0.4990 c3         1 SQS      -0.074400
      9 C17        -10.8970     0.6770    -0.5720 c3         1 SQS      -0.075400
     10 O3           6.4260     0.8780    -1.6250 oh         1 SQS      -0.657000
     11 C3           6.7210     0.0580    -0.4920 c3         1 SQS       0.206500
     12 C2           7.8410     0.7210     0.3850 c3         1 SQS       0.129500
     13 N2           8.1070    -0.0220     1.6540 n8         1 SQS      -0.992200
     14 C1           9.1710     0.9200    -0.4060 c3         1 SQS       0.123600
     15 O1          10.2180     1.4030     0.4610 oh         1 SQS      -0.673000
     16 C9          -0.6560    -0.4340    -0.2800 c3         1 SQS      -0.074400
     17 C11         -3.2160    -0.1560    -0.3530 c3         1 SQS      -0.074400
     18 C12         -4.5560    -0.3600     0.3880 c3         1 SQS      -0.074400
     19 C14         -7.1160    -0.0820     0.3150 c3         1 SQS      -0.074400
     20 C16         -9.6760     0.1960     0.2420 c3         1 SQS      -0.075400
     21 C18        -12.2340     0.4750     0.1680 c3         1 SQS      -0.088100
     22 H1           5.3210     0.4310     1.1630 ha         1 SQS       0.197000
     23 H2           4.5240    -1.5720    -1.0540 ha         1 SQS       0.169000
     24 H3           3.0070    -2.2560     0.8410 hc         1 SQS       0.045700
     25 H4           3.1460    -0.6600     1.5650 hc         1 SQS       0.045700
     26 H5           2.0280     0.3530    -0.4430 hc         1 SQS       0.038700
     27 H6           1.8740    -1.2490    -1.1620 hc         1 SQS       0.038700
     28 H7           0.4430    -1.9800     0.7710 hc         1 SQS       0.037700
     29 H8           0.5960    -0.3760     1.4900 hc         1 SQS       0.037700
     30 H9          -2.1180    -1.7020     0.6980 hc         1 SQS       0.037200
     31 H10         -1.9640    -0.0980     1.4160 hc         1 SQS       0.037200
     32 H11         -5.6540     1.1860    -0.6630 hc         1 SQS       0.036700
     33 H12         -5.8080    -0.4180    -1.3810 hc         1 SQS       0.036700
     34 H13         -8.2140     1.4640    -0.7370 hc         1 SQS       0.036700
     35 H14         -8.3680    -0.1410    -1.4540 hc         1 SQS       0.036700
     36 H15        -10.7790     1.7420    -0.8100 hc         1 SQS       0.036700
     37 H16        -10.9330     0.1380    -1.5270 hc         1 SQS       0.036700
     38 H17          5.5140     0.6370    -1.8960 ho         1 SQS       0.442000
     39 H18          7.0900    -0.9220    -0.8280 h1         1 SQS       0.075700
     40 H19          7.4880     1.7240     0.6670 h1         1 SQS       0.071700
     41 H20          8.3180    -1.0000     1.4270 hn         1 SQS       0.402500
     42 H21          9.0120     0.3290     1.9970 hn         1 SQS       0.402500
     43 H23          9.4690    -0.0380    -0.8530 h1         1 SQS       0.030200
     44 H24          9.0010     1.6300    -1.2270 h1         1 SQS       0.030200
     45 H25         11.0170     1.5370    -0.0980 ho         1 SQS       0.448000
     46 H26         -0.5340     0.6300    -0.5170 hc         1 SQS       0.037200
     47 H27         -0.6870    -0.9730    -1.2350 hc         1 SQS       0.037200
     48 H28         -3.0940     0.9080    -0.5900 hc         1 SQS       0.037200
     49 H29         -3.2480    -0.6960    -1.3080 hc         1 SQS       0.037200
     50 H30         -4.5250     0.1790     1.3430 hc         1 SQS       0.037200
     51 H31         -4.6780    -1.4240     0.6250 hc         1 SQS       0.037200
     52 H32         -7.2380    -1.1460     0.5520 hc         1 SQS       0.037200
     53 H33         -7.0850     0.4580     1.2700 hc         1 SQS       0.037200
     54 H34         -9.7990    -0.8680     0.4800 hc         1 SQS       0.036700
     55 H35         -9.6450     0.7360     1.1970 hc         1 SQS       0.036700
     56 H36        -12.3980    -0.5860     0.3890 hc         1 SQS       0.031367
     57 H37        -12.2430     1.0320     1.1130 hc         1 SQS       0.031367
     58 H38        -13.0690     0.8300    -0.4480 hc         1 SQS       0.031367
@<TRIPOS>BOND
     1     1     2 2   
     2     1    11 1   
     3     1    22 1   
     4     2     3 1   
     5     2    23 1   
     6     3     4 1   
     7     3    24 1   
     8     3    25 1   
     9     4     5 1   
    10     4    26 1   
    11     4    27 1   
    12     5    16 1   
    13     5    28 1   
    14     5    29 1   
    15     6    16 1   
    16     6    17 1   
    17     6    30 1   
    18     6    31 1   
    19     7    18 1   
    20     7    19 1   
    21     7    32 1   
    22     7    33 1   
    23     8    19 1   
    24     8    20 1   
    25     8    34 1   
    26     8    35 1   
    27     9    20 1   
    28     9    21 1   
    29     9    36 1   
    30     9    37 1   
    31    10    11 1   
    32    10    38 1   
    33    11    12 1   
    34    11    39 1   
    35    12    13 1   
    36    12    14 1   
    37    12    40 1   
    38    13    41 1   
    39    13    42 1   
    40    14    15 1   
    41    14    43 1   
    42    14    44 1   
    43    15    45 1   
    44    16    46 1   
    45    16    47 1   
    46    17    18 1   
    47    17    48 1   
    48    17    49 1   
    49    18    50 1   
    50    18    51 1   
    51    19    52 1   
    52    19    53 1   
    53    20    54 1   
    54    20    55 1   
    55    21    56 1   
    56    21    57 1   
    57    21    58 1   
@<TRIPOS>SUBSTRUCTURE
     1 SQS         1 TEMP              0 ****  ****    0 ROOT
