@<TRIPOS>MOLECULE
SQT
   40    42     1     0     0
SMALL
No Charge or Current Charge


@<TRIPOS>ATOM
      1 C02          5.3250    -1.0810    -4.3850 ce         1 SQT       0.676800
      2 C04          6.7880    -1.2680    -4.5030 ca         1 SQT      -0.259900
      3 C05          7.4830    -0.8770    -5.6620 ca         1 SQT       0.011000
      4 C06          8.8610    -1.1260    -5.7320 ca         1 SQT      -0.242000
      5 C07          9.5000    -1.7690    -4.6580 ca         1 SQT       0.633900
      6 C09          7.5100    -1.9290    -3.4950 ca         1 SQT       0.406900
      7 C11         11.7000    -1.8220    -3.4170 c6         1 SQT       0.214800
      8 C12         13.0070    -2.6790    -3.3700 c6         1 SQT       0.184300
      9 C14         12.9970    -2.8490    -5.8490 c6         1 SQT       0.184300
     10 C15         11.6860    -1.9970    -5.9080 c6         1 SQT       0.214800
     11 C16         15.2070    -2.8490    -4.5970 ca         1 SQT       0.289000
     12 C17         16.0380    -2.1380    -3.7110 ca         1 SQT      -0.159500
     13 C18         17.4210    -2.3870    -3.6650 ca         1 SQT      -0.082000
     14 C19         17.9860    -3.3560    -4.5090 ca         1 SQT      -0.142000
     15 C20         17.1690    -4.0730    -5.3980 ca         1 SQT      -0.082000
     16 C21         15.7870    -3.8190    -5.4420 ca         1 SQT      -0.159500
     17 N01          4.5770    -0.8860    -5.3880 n2         1 SQT      -0.836100
     18 N03          4.7930    -0.9780    -3.1520 nv         1 SQT      -1.082200
     19 N08          8.8370    -2.1680    -3.5620 nb         1 SQT      -0.759000
     20 N10         10.8750    -2.0660    -4.6490 nh         1 SQT      -0.781300
     21 N13         13.8170    -2.5780    -4.6260 nh         1 SQT      -0.790400
     22 H1           6.9730    -0.3830    -6.4880 ha         1 SQT       0.139000
     23 H2           9.4150    -0.8110    -6.6080 ha         1 SQT       0.123000
     24 H3           7.0170    -2.2920    -2.5940 h4         1 SQT       0.017100
     25 H4          11.9810    -0.7590    -3.3710 h1         1 SQT       0.058450
     26 H5          11.1320    -2.0390    -2.5010 h1         1 SQT       0.058450
     27 H6          12.7270    -3.7290    -3.2000 h1         1 SQT       0.048950
     28 H7          13.5950    -2.3610    -2.4980 h1         1 SQT       0.048950
     29 H8          12.7220    -3.9140    -5.8790 h1         1 SQT       0.048950
     30 H9          13.5820    -2.6370    -6.7560 h1         1 SQT       0.048950
     31 H10         11.9580    -0.9520    -6.1150 h1         1 SQT       0.058450
     32 H11         11.0970    -2.3580    -6.7640 h1         1 SQT       0.058450
     33 H12         15.6130    -1.3780    -3.0620 ha         1 SQT       0.112000
     34 H13         18.0530    -1.8290    -2.9770 ha         1 SQT       0.110500
     35 H14         19.0560    -3.5510    -4.4740 ha         1 SQT       0.114000
     36 H15         17.6060    -4.8250    -6.0520 ha         1 SQT       0.110500
     37 H16         15.1700    -4.3910    -6.1290 ha         1 SQT       0.112000
     38 H17          3.6030    -0.9670    -5.0780 hn         1 SQT       0.368400
     39 H18          5.4510    -0.7880    -2.4060 hn         1 SQT       0.461500
     40 H19          3.9140    -0.4770    -3.0850 hn         1 SQT       0.461500
@<TRIPOS>BOND
     1     1     2 1   
     2     1    17 2   
     3     1    18 1   
     4     2     3 ar  
     5     2     6 ar  
     6     3     4 ar  
     7     3    22 1   
     8     4     5 ar  
     9     4    23 1   
    10     5    19 ar  
    11     5    20 1   
    12     6    19 ar  
    13     6    24 1   
    14     7     8 1   
    15     7    20 1   
    16     7    25 1   
    17     7    26 1   
    18     8    21 1   
    19     8    27 1   
    20     8    28 1   
    21     9    10 1   
    22     9    21 1   
    23     9    29 1   
    24     9    30 1   
    25    10    20 1   
    26    10    31 1   
    27    10    32 1   
    28    11    12 ar  
    29    11    16 ar  
    30    11    21 1   
    31    12    13 ar  
    32    12    33 1   
    33    13    14 ar  
    34    13    34 1   
    35    14    15 ar  
    36    14    35 1   
    37    15    16 ar  
    38    15    36 1   
    39    16    37 1   
    40    17    38 1   
    41    18    39 1   
    42    18    40 1   
@<TRIPOS>SUBSTRUCTURE
     1 SQT         1 TEMP              0 ****  ****    0 ROOT
