@<TRIPOS>MOLECULE
SQT
   40    42     1     0     0
SMALL
abcg2


@<TRIPOS>ATOM
      1 C02          5.3870    -1.2840    -4.3700 ce         1 SQT       0.676800
      2 C04          6.8610    -1.3940    -4.4730 ca         1 SQT      -0.259900
      3 C05          7.5010    -1.3680    -5.7210 ca         1 SQT       0.011000
      4 C06          8.8670    -1.4800    -5.8100 ca         1 SQT      -0.242000
      5 C07          9.6250    -1.6420    -4.6240 ca         1 SQT       0.633900
      6 C09          7.6910    -1.5390    -3.3660 ca         1 SQT       0.406900
      7 C11         11.7680    -1.6160    -3.4200 c6         1 SQT       0.214800
      8 C12         12.9880    -2.5180    -3.4120 c6         1 SQT       0.184300
      9 C14         13.0080    -2.5640    -5.8140 c6         1 SQT       0.184300
     10 C15         11.7750    -1.6690    -5.8490 c6         1 SQT       0.214800
     11 C16         15.1180    -2.7980    -4.5880 ca         1 SQT       0.289000
     12 C17         15.9480    -2.5010    -3.4920 ca         1 SQT      -0.159500
     13 C18         17.2690    -2.9220    -3.4620 ca         1 SQT      -0.082000
     14 C19         17.8120    -3.6470    -4.5210 ca         1 SQT      -0.142000
     15 C20         17.0020    -3.9460    -5.6090 ca         1 SQT      -0.082000
     16 C21         15.6710    -3.5370    -5.6440 ca         1 SQT      -0.159500
     17 N01          4.6590    -1.5650    -5.3960 n2         1 SQT      -0.836100
     18 N03          4.8960    -0.9300    -3.1370 nv         1 SQT      -1.082200
     19 N08          9.0150    -1.6550    -3.4250 nb         1 SQT      -0.759000
     20 N10         10.9850    -1.8120    -4.6360 nh         1 SQT      -0.781300
     21 N13         13.7970    -2.3230    -4.6160 nh         1 SQT      -0.790400
     22 H1           6.9090    -1.2420    -6.6170 ha         1 SQT       0.139000
     23 H2           9.3370    -1.4320    -6.7790 ha         1 SQT       0.123000
     24 H3           7.2700    -1.5830    -2.3670 h4         1 SQT       0.017100
     25 H4          12.0900    -0.5680    -3.3580 h1         1 SQT       0.058450
     26 H5          11.1470    -1.8340    -2.5590 h1         1 SQT       0.058450
     27 H6          12.6650    -3.5680    -3.3450 h1         1 SQT       0.048950
     28 H7          13.5740    -2.2920    -2.5260 h1         1 SQT       0.048950
     29 H8          12.6940    -3.6170    -5.8790 h1         1 SQT       0.048950
     30 H9          13.6050    -2.3350    -6.6950 h1         1 SQT       0.048950
     31 H10         12.0840    -0.6240    -5.9760 h1         1 SQT       0.058450
     32 H11         11.1900    -1.9570    -6.7160 h1         1 SQT       0.058450
     33 H12         15.5660    -1.9130    -2.6690 ha         1 SQT       0.112000
     34 H13         17.8820    -2.6700    -2.6060 ha         1 SQT       0.110500
     35 H14         18.8450    -3.9700    -4.4960 ha         1 SQT       0.114000
     36 H15         17.3980    -4.5150    -6.4410 ha         1 SQT       0.110500
     37 H16         15.0690    -3.8080    -6.4990 ha         1 SQT       0.112000
     38 H17          3.6720    -1.4110    -5.1920 hn         1 SQT       0.368400
     39 H18          5.4760    -0.3750    -2.5270 hn         1 SQT       0.461500
     40 H19          3.9120    -0.7150    -3.0810 hn         1 SQT       0.461500
@<TRIPOS>BOND
     1     1     2 1   
     2     1    17 2   
     3     1    18 1   
     4     2     3 ar  
     5     2     6 ar  
     6     3     4 ar  
     7     3    22 1   
     8     4     5 ar  
     9     4    23 1   
    10     5    19 ar  
    11     5    20 1   
    12     6    19 ar  
    13     6    24 1   
    14     7     8 1   
    15     7    20 1   
    16     7    25 1   
    17     7    26 1   
    18     8    21 1   
    19     8    27 1   
    20     8    28 1   
    21     9    10 1   
    22     9    21 1   
    23     9    29 1   
    24     9    30 1   
    25    10    20 1   
    26    10    31 1   
    27    10    32 1   
    28    11    12 ar  
    29    11    16 ar  
    30    11    21 1   
    31    12    13 ar  
    32    12    33 1   
    33    13    14 ar  
    34    13    34 1   
    35    14    15 ar  
    36    14    35 1   
    37    15    16 ar  
    38    15    36 1   
    39    16    37 1   
    40    17    38 1   
    41    18    39 1   
    42    18    40 1   
@<TRIPOS>SUBSTRUCTURE
     1 SQT         1 TEMP              0 ****  ****    0 ROOT
