@<TRIPOS>MOLECULE
SQU
   83    82     1     0     0
SMALL
bcc


@<TRIPOS>ATOM
      1 C1           1.0790     0.5920   -14.3540 c3         1 SQU      -0.086600
      2 C2           0.1200     0.1060   -13.2720 c3         1 SQU      -0.059700
      3 C3          -0.3840    -1.2950   -13.6050 c3         1 SQU      -0.086600
      4 C4           0.7920     0.1660   -11.8990 c3         1 SQU      -0.072400
      5 C5          -0.1270    -0.1050   -10.7140 c3         1 SQU      -0.074400
      6 C6           0.5850     0.0390    -9.3730 c3         1 SQU      -0.075400
      7 C7          -0.3380    -0.1520    -8.1760 c3         1 SQU      -0.074400
      8 C9           0.3680     0.0140    -6.8360 c3         1 SQU      -0.075400
      9 C10         -0.5770    -0.0970    -5.6450 c3         1 SQU      -0.074400
     10 C11          0.1240     0.1260    -4.3090 c3         1 SQU      -0.072400
     11 C12         -0.7660    -0.0210    -3.0720 c3         1 SQU      -0.055700
     12 C13         -1.9200     0.9780    -3.0890 c3         1 SQU      -0.087100
     13 C14          0.0840     0.1240    -1.8050 c3         1 SQU      -0.072400
     14 C15         -0.6590    -0.1130    -0.4950 c3         1 SQU      -0.074400
     15 C16          0.2390    -0.0010     0.7310 c3         1 SQU      -0.074400
     16 C17         -0.5210    -0.1840     2.0390 c3         1 SQU      -0.074400
     17 C18          0.3450    -0.0120     3.2800 c3         1 SQU      -0.073400
     18 C20         -0.4370    -0.1750     4.5780 c3         1 SQU      -0.074400
     19 C21          0.4090     0.0290     5.8280 c3         1 SQU      -0.074400
     20 C22         -0.3860    -0.1250     7.1190 c3         1 SQU      -0.074400
     21 C23          0.4500     0.0870     8.3750 c3         1 SQU      -0.074400
     22 C25         -0.3520    -0.0670     9.6610 c3         1 SQU      -0.075400
     23 C26          0.4800     0.1440    10.9210 c3         1 SQU      -0.073400
     24 C27         -0.3310    -0.0310    12.1990 c3         1 SQU      -0.072400
     25 C28          0.4270     0.2610    13.4950 c3         1 SQU      -0.059700
     26 C29         -0.5220     0.1900    14.6880 c3         1 SQU      -0.086600
     27 C30          1.6110    -0.6790    13.7000 c3         1 SQU      -0.086600
     28 H11          1.9440    -0.0720   -14.4350 hc         1 SQU       0.031533
     29 H12A         0.5940     0.6220   -15.3320 hc         1 SQU       0.031533
     30 H13          1.4520     1.5950   -14.1370 hc         1 SQU       0.031533
     31 H2          -0.7410     0.7850   -13.2560 hc         1 SQU       0.043700
     32 H31          0.4390    -2.0140   -13.5870 hc         1 SQU       0.031533
     33 H32         -1.1430    -1.6430   -12.9040 hc         1 SQU       0.031533
     34 H33         -0.8260    -1.3260   -14.6030 hc         1 SQU       0.031533
     35 H41          1.2360     1.1590   -11.7710 hc         1 SQU       0.037200
     36 H42          1.6300    -0.5430   -11.8830 hc         1 SQU       0.037200
     37 H51         -0.5570    -1.1090   -10.7830 hc         1 SQU       0.037700
     38 H52         -0.9740     0.5900   -10.7480 hc         1 SQU       0.037700
     39 H61          1.0470     1.0310    -9.3160 hc         1 SQU       0.037200
     40 H62          1.4090    -0.6810    -9.3210 hc         1 SQU       0.037200
     41 H71         -0.8010    -1.1440    -8.2230 hc         1 SQU       0.037200
     42 H72         -1.1600     0.5690    -8.2390 hc         1 SQU       0.037200
     43 H91          0.8650     0.9910    -6.8100 hc         1 SQU       0.036700
     44 H92          1.1650    -0.7330    -6.7460 hc         1 SQU       0.036700
     45 H101        -1.0570    -1.0820    -5.6460 hc         1 SQU       0.038200
     46 H102        -1.3810     0.6330    -5.7730 hc         1 SQU       0.038200
     47 H111         0.5760     1.1260    -4.3040 hc         1 SQU       0.036700
     48 H112         0.9570    -0.5810    -4.2300 hc         1 SQU       0.036700
     49 H12         -1.1900    -1.0340    -3.0790 hc         1 SQU       0.044700
     50 H131        -1.5400     2.0030    -3.0830 hc         1 SQU       0.031700
     51 H132        -2.5480     0.8640    -3.9720 hc         1 SQU       0.031700
     52 H133        -2.5720     0.8640    -2.2230 hc         1 SQU       0.031700
     53 H141         0.5280     1.1270    -1.7900 hc         1 SQU       0.036700
     54 H142         0.9240    -0.5770    -1.8620 hc         1 SQU       0.036700
     55 H151        -1.1290    -1.1030    -0.5160 hc         1 SQU       0.038200
     56 H152        -1.4760     0.6080    -0.3930 hc         1 SQU       0.038200
     57 H161         0.7260     0.9810     0.7310 hc         1 SQU       0.037200
     58 H162         1.0460    -0.7390     0.6680 hc         1 SQU       0.037200
     59 H171        -0.9850    -1.1770     2.0530 hc         1 SQU       0.036700
     60 H172        -1.3470     0.5340     2.0760 hc         1 SQU       0.036700
     61 H181         0.8120     0.9790     3.2610 hc         1 SQU       0.037200
     62 H182         1.1680    -0.7350     3.2560 hc         1 SQU       0.037200
     63 H201        -0.8910    -1.1720     4.6040 hc         1 SQU       0.036700
     64 H202        -1.2710     0.5360     4.5870 hc         1 SQU       0.036700
     65 H211         0.8650     1.0250     5.8000 hc         1 SQU       0.037200
     66 H212         1.2410    -0.6840     5.8260 hc         1 SQU       0.037200
     67 H221        -0.8380    -1.1230     7.1480 hc         1 SQU       0.036700
     68 H222        -1.2210     0.5850     7.1160 hc         1 SQU       0.036700
     69 H231         0.9030     1.0840     8.3470 hc         1 SQU       0.036700
     70 H232         1.2840    -0.6240     8.3800 hc         1 SQU       0.036700
     71 H251        -0.8030    -1.0650     9.6880 hc         1 SQU       0.036700
     72 H252        -1.1870     0.6420     9.6540 hc         1 SQU       0.036700
     73 H261         0.9180     1.1490    10.9040 hc         1 SQU       0.037700
     74 H262         1.3230    -0.5540    10.9100 hc         1 SQU       0.037700
     75 H271        -0.7290    -1.0530    12.2410 hc         1 SQU       0.037200
     76 H272        -1.2040     0.6300    12.1530 hc         1 SQU       0.037200
     77 H28          0.8140     1.2860    13.4340 hc         1 SQU       0.043700
     78 H291        -0.0110     0.4370    15.6210 hc         1 SQU       0.031533
     79 H292        -1.3580     0.8820    14.5750 hc         1 SQU       0.031533
     80 H293        -0.9380    -0.8150    14.7970 hc         1 SQU       0.031533
     81 H301         1.2770    -1.7190    13.7400 hc         1 SQU       0.031533
     82 H302         2.3460    -0.5970    12.8990 hc         1 SQU       0.031533
     83 H303         2.1250    -0.4620    14.6380 hc         1 SQU       0.031533
@<TRIPOS>BOND
     1     1     2 1   
     2     1    28 1   
     3     1    29 1   
     4     1    30 1   
     5     2     3 1   
     6     2     4 1   
     7     2    31 1   
     8     3    32 1   
     9     3    33 1   
    10     3    34 1   
    11     4     5 1   
    12     4    35 1   
    13     4    36 1   
    14     5     6 1   
    15     5    37 1   
    16     5    38 1   
    17     6     7 1   
    18     6    39 1   
    19     6    40 1   
    20     7     8 1   
    21     7    41 1   
    22     7    42 1   
    23     8     9 1   
    24     8    43 1   
    25     8    44 1   
    26     9    10 1   
    27     9    45 1   
    28     9    46 1   
    29    10    11 1   
    30    10    47 1   
    31    10    48 1   
    32    11    12 1   
    33    11    13 1   
    34    11    49 1   
    35    12    50 1   
    36    12    51 1   
    37    12    52 1   
    38    13    14 1   
    39    13    53 1   
    40    13    54 1   
    41    14    15 1   
    42    14    55 1   
    43    14    56 1   
    44    15    16 1   
    45    15    57 1   
    46    15    58 1   
    47    16    17 1   
    48    16    59 1   
    49    16    60 1   
    50    17    18 1   
    51    17    61 1   
    52    17    62 1   
    53    18    19 1   
    54    18    63 1   
    55    18    64 1   
    56    19    20 1   
    57    19    65 1   
    58    19    66 1   
    59    20    21 1   
    60    20    67 1   
    61    20    68 1   
    62    21    22 1   
    63    21    69 1   
    64    21    70 1   
    65    22    23 1   
    66    22    71 1   
    67    22    72 1   
    68    23    24 1   
    69    23    73 1   
    70    23    74 1   
    71    24    25 1   
    72    24    75 1   
    73    24    76 1   
    74    25    26 1   
    75    25    27 1   
    76    25    77 1   
    77    26    78 1   
    78    26    79 1   
    79    26    80 1   
    80    27    81 1   
    81    27    82 1   
    82    27    83 1   
@<TRIPOS>SUBSTRUCTURE
     1 SQU         1 TEMP              0 ****  ****    0 ROOT
