@<TRIPOS>MOLECULE
SQU
   83    82     1     0     0
SMALL
No Charge or Current Charge


@<TRIPOS>ATOM
      1 C1           1.4650    -0.2560   -14.4730 c3         1 SQU      -0.086600
      2 C2           0.4460    -0.5620   -13.3520 c3         1 SQU      -0.059700
      3 C3          -0.0670    -2.0180   -13.4620 c3         1 SQU      -0.086600
      4 C4           1.0420    -0.2320   -11.9560 c3         1 SQU      -0.072400
      5 C5           0.0420    -0.3420   -10.7790 c3         1 SQU      -0.074400
      6 C6           0.6510     0.1000    -9.4300 c3         1 SQU      -0.075400
      7 C7          -0.3430    -0.0120    -8.2530 c3         1 SQU      -0.074400
      8 C9           0.2660     0.4290    -6.9040 c3         1 SQU      -0.075400
      9 C10         -0.7270     0.3160    -5.7270 c3         1 SQU      -0.074400
     10 C11         -0.1150     0.7630    -4.3770 c3         1 SQU      -0.072400
     11 C12         -1.0240     0.5460    -3.1330 c3         1 SQU      -0.055700
     12 C13         -2.3350     1.3710    -3.2130 c3         1 SQU      -0.087100
     13 C14         -0.2260     0.8330    -1.8280 c3         1 SQU      -0.072400
     14 C15         -0.9540     0.4600    -0.5140 c3         1 SQU      -0.074400
     15 C16         -0.0670     0.6390     0.7370 c3         1 SQU      -0.074400
     16 C17         -0.7910     0.2720     2.0500 c3         1 SQU      -0.074400
     17 C18          0.0970     0.4500     3.3010 c3         1 SQU      -0.073400
     18 C20         -0.6280     0.0820     4.6140 c3         1 SQU      -0.074400
     19 C21          0.2610     0.2590     5.8650 c3         1 SQU      -0.074400
     20 C22         -0.4640    -0.1090     7.1780 c3         1 SQU      -0.074400
     21 C23          0.4240     0.0680     8.4290 c3         1 SQU      -0.074400
     22 C25         -0.3000    -0.3010     9.7420 c3         1 SQU      -0.075400
     23 C26          0.5880    -0.1240    10.9930 c3         1 SQU      -0.073400
     24 C27         -0.1390    -0.4990    12.3060 c3         1 SQU      -0.072400
     25 C28          0.6760    -0.2360    13.6020 c3         1 SQU      -0.059700
     26 C29         -0.1920    -0.4740    14.8580 c3         1 SQU      -0.086600
     27 C30          1.9810    -1.0670    13.6750 c3         1 SQU      -0.086600
     28 H11          2.3550    -0.8900   -14.3760 hc         1 SQU       0.031533
     29 H12A         1.0220    -0.4360   -15.4610 hc         1 SQU       0.031533
     30 H13          1.7840     0.7920   -14.4340 hc         1 SQU       0.031533
     31 H2          -0.4140     0.1010   -13.5110 hc         1 SQU       0.043700
     32 H31          0.7350    -2.7330   -13.2390 hc         1 SQU       0.031533
     33 H32         -0.8970    -2.2010   -12.7690 hc         1 SQU       0.031533
     34 H33         -0.4350    -2.2230   -14.4740 hc         1 SQU       0.031533
     35 H41          1.4360     0.7920   -11.9780 hc         1 SQU       0.037200
     36 H42          1.8980    -0.8910   -11.7630 hc         1 SQU       0.037200
     37 H51         -0.3040    -1.3780   -10.6840 hc         1 SQU       0.037700
     38 H52         -0.8390     0.2750   -10.9960 hc         1 SQU       0.037700
     39 H61          0.9960     1.1380    -9.5120 hc         1 SQU       0.037200
     40 H62          1.5340    -0.5150    -9.2160 hc         1 SQU       0.037200
     41 H71         -0.6870    -1.0510    -8.1700 hc         1 SQU       0.037200
     42 H72         -1.2260     0.6020    -8.4680 hc         1 SQU       0.037200
     43 H91          0.6100     1.4670    -6.9870 hc         1 SQU       0.036700
     44 H92          1.1500    -0.1860    -6.6910 hc         1 SQU       0.036700
     45 H101        -1.0680    -0.7240    -5.6420 hc         1 SQU       0.038200
     46 H102        -1.6080     0.9270    -5.9560 hc         1 SQU       0.038200
     47 H111         0.1620     1.8230    -4.4420 hc         1 SQU       0.036700
     48 H112         0.8200     0.2070    -4.2290 hc         1 SQU       0.036700
     49 H12         -1.3040    -0.5150    -3.1160 hc         1 SQU       0.044700
     50 H131        -2.1190     2.4460    -3.2330 hc         1 SQU       0.031700
     51 H132        -2.9110     1.1190    -4.1100 hc         1 SQU       0.031700
     52 H133        -2.9870     1.1680    -2.3560 hc         1 SQU       0.031700
     53 H141         0.0470     1.8960    -1.7980 hc         1 SQU       0.036700
     54 H142         0.7170     0.2720    -1.8640 hc         1 SQU       0.036700
     55 H151        -1.2900    -0.5830    -0.5710 hc         1 SQU       0.038200
     56 H152        -1.8500     1.0810    -0.3970 hc         1 SQU       0.038200
     57 H161         0.2720     1.6820     0.7910 hc         1 SQU       0.037200
     58 H162         0.8310     0.0160     0.6350 hc         1 SQU       0.037200
     59 H171        -1.1310    -0.7700     1.9950 hc         1 SQU       0.036700
     60 H172        -1.6880     0.8960     2.1530 hc         1 SQU       0.036700
     61 H181         0.4360     1.4920     3.3560 hc         1 SQU       0.037200
     62 H182         0.9940    -0.1740     3.1980 hc         1 SQU       0.037200
     63 H201        -0.9670    -0.9600     4.5580 hc         1 SQU       0.036700
     64 H202        -1.5240     0.7060     4.7180 hc         1 SQU       0.036700
     65 H211         0.6000     1.3010     5.9210 hc         1 SQU       0.037200
     66 H212         1.1570    -0.3650     5.7610 hc         1 SQU       0.037200
     67 H221        -0.8040    -1.1510     7.1220 hc         1 SQU       0.036700
     68 H222        -1.3610     0.5150     7.2820 hc         1 SQU       0.036700
     69 H231         0.7640     1.1100     8.4850 hc         1 SQU       0.036700
     70 H232         1.3210    -0.5560     8.3250 hc         1 SQU       0.036700
     71 H251        -0.6390    -1.3430     9.6860 hc         1 SQU       0.036700
     72 H252        -1.1970     0.3230     9.8450 hc         1 SQU       0.036700
     73 H261         0.9250     0.9180    11.0510 hc         1 SQU       0.037700
     74 H262         1.4830    -0.7470    10.8760 hc         1 SQU       0.037700
     75 H271        -0.4280    -1.5570    12.2680 hc         1 SQU       0.037200
     76 H272        -1.0720     0.0760    12.3580 hc         1 SQU       0.037200
     77 H28          0.9620     0.8230    13.6060 hc         1 SQU       0.043700
     78 H291         0.3680    -0.2330    15.7700 hc         1 SQU       0.031533
     79 H292        -1.0880     0.1590    14.8380 hc         1 SQU       0.031533
     80 H293        -0.5140    -1.5210    14.9190 hc         1 SQU       0.031533
     81 H301         1.7650    -2.1400    13.6010 hc         1 SQU       0.031533
     82 H302         2.6700    -0.7950    12.8670 hc         1 SQU       0.031533
     83 H303         2.5000    -0.8880    14.6240 hc         1 SQU       0.031533
@<TRIPOS>BOND
     1     1     2 1   
     2     1    28 1   
     3     1    29 1   
     4     1    30 1   
     5     2     3 1   
     6     2     4 1   
     7     2    31 1   
     8     3    32 1   
     9     3    33 1   
    10     3    34 1   
    11     4     5 1   
    12     4    35 1   
    13     4    36 1   
    14     5     6 1   
    15     5    37 1   
    16     5    38 1   
    17     6     7 1   
    18     6    39 1   
    19     6    40 1   
    20     7     8 1   
    21     7    41 1   
    22     7    42 1   
    23     8     9 1   
    24     8    43 1   
    25     8    44 1   
    26     9    10 1   
    27     9    45 1   
    28     9    46 1   
    29    10    11 1   
    30    10    47 1   
    31    10    48 1   
    32    11    12 1   
    33    11    13 1   
    34    11    49 1   
    35    12    50 1   
    36    12    51 1   
    37    12    52 1   
    38    13    14 1   
    39    13    53 1   
    40    13    54 1   
    41    14    15 1   
    42    14    55 1   
    43    14    56 1   
    44    15    16 1   
    45    15    57 1   
    46    15    58 1   
    47    16    17 1   
    48    16    59 1   
    49    16    60 1   
    50    17    18 1   
    51    17    61 1   
    52    17    62 1   
    53    18    19 1   
    54    18    63 1   
    55    18    64 1   
    56    19    20 1   
    57    19    65 1   
    58    19    66 1   
    59    20    21 1   
    60    20    67 1   
    61    20    68 1   
    62    21    22 1   
    63    21    69 1   
    64    21    70 1   
    65    22    23 1   
    66    22    71 1   
    67    22    72 1   
    68    23    24 1   
    69    23    73 1   
    70    23    74 1   
    71    24    25 1   
    72    24    75 1   
    73    24    76 1   
    74    25    26 1   
    75    25    27 1   
    76    25    77 1   
    77    26    78 1   
    78    26    79 1   
    79    26    80 1   
    80    27    81 1   
    81    27    82 1   
    82    27    83 1   
@<TRIPOS>SUBSTRUCTURE
     1 SQU         1 TEMP              0 ****  ****    0 ROOT
