@<TRIPOS>MOLECULE
SQV
   27    27     1     0     0
SMALL
abcg2


@<TRIPOS>ATOM
      1 C4          33.9320    87.5320     1.6590 ca         1 SQV       0.384300
      2 C5          33.9440    88.4050     2.7300 ca         1 SQV      -0.188000
      3 C6          33.0140    88.2360     3.7590 ca         1 SQV       0.179100
      4 C7          32.1260    88.9740     5.8240 c3         1 SQV       0.147900
      5 C8          32.1080    87.1840     3.6560 ca         1 SQV      -0.255000
      6 N           33.0650    86.5250     1.5550 nb         1 SQV      -0.682000
      7 C           34.2460    87.6600    -0.8380 c3         1 SQV      -0.073100
      8 O           36.8530    86.6850    -0.3580 os         1 SQV      -0.446100
      9 C1          34.9230    87.6940     0.5350 c3         1 SQV      -0.164000
     10 C2          36.0160    86.6500     0.6680 c          1 SQV       0.596100
     11 C3          37.9450    85.7650    -0.3530 c3         1 SQV       0.152900
     12 C9          32.1880    86.3720     2.5340 ca         1 SQV       0.376900
     13 O1          36.1370    85.8950     1.5990 o          1 SQV      -0.474000
     14 O2          33.0640    89.1060     4.7690 os         1 SQV      -0.334100
     15 H1          34.6620    89.2140     2.7780 ha         1 SQV       0.134000
     16 H2          32.3410    89.7740     6.5270 h1         1 SQV       0.044700
     17 H3          31.0990    89.0820     5.4670 h1         1 SQV       0.044700
     18 H4          32.2260    88.0150     6.3370 h1         1 SQV       0.044700
     19 H5          31.3540    86.9820     4.4040 ha         1 SQV       0.126000
     20 H6          33.4520    88.4050    -0.8750 hc         1 SQV       0.049033
     21 H7          34.9540    87.8910    -1.6320 hc         1 SQV       0.049033
     22 H8          33.8030    86.6860    -1.0380 hc         1 SQV       0.049033
     23 H9          35.4170    88.6660     0.6450 hc         1 SQV       0.075700
     24 H10         38.4990    85.9560    -1.2670 h1         1 SQV       0.047700
     25 H11         38.5970    85.9240     0.5050 h1         1 SQV       0.047700
     26 H12         37.5940    84.7340    -0.3530 h1         1 SQV       0.047700
     27 H13         31.4890    85.5480     2.4330 h4         1 SQV       0.017100
@<TRIPOS>BOND
     1     1     2 ar  
     2     1     6 ar  
     3     1     9 1   
     4     2     3 ar  
     5     2    15 1   
     6     3     5 ar  
     7     3    14 1   
     8     4    14 1   
     9     4    16 1   
    10     4    17 1   
    11     4    18 1   
    12     5    12 ar  
    13     5    19 1   
    14     6    12 ar  
    15     7     9 1   
    16     7    20 1   
    17     7    21 1   
    18     7    22 1   
    19     8    10 1   
    20     8    11 1   
    21     9    10 1   
    22     9    23 1   
    23    10    13 2   
    24    11    24 1   
    25    11    25 1   
    26    11    26 1   
    27    12    27 1   
@<TRIPOS>SUBSTRUCTURE
     1 SQV         1 TEMP              0 ****  ****    0 ROOT
