@<TRIPOS>MOLECULE
SQV
   27    27     1     0     0
SMALL
No Charge or Current Charge


@<TRIPOS>ATOM
      1 C4          33.6440    87.4230     1.3550 ca         1 SQV       0.384300
      2 C5          34.0660    88.1380     2.4870 ca         1 SQV      -0.188000
      3 C6          33.2640    88.1510     3.6320 ca         1 SQV       0.179100
      4 C7          32.9300    88.9210     5.9490 c3         1 SQV       0.147900
      5 C8          32.0520    87.4410     3.6040 ca         1 SQV      -0.255000
      6 N           32.4760    86.7400     1.3300 nb         1 SQV      -0.682000
      7 C           33.7970    86.9790    -1.2100 c3         1 SQV      -0.073100
      8 O           36.9000    87.2280     0.3220 os         1 SQV      -0.446100
      9 C1          34.5130    87.4010     0.1040 c3         1 SQV      -0.164000
     10 C2          35.7290    86.5160     0.3810 c          1 SQV       0.596100
     11 C3          38.1330    86.5250     0.5650 c3         1 SQV       0.152900
     12 C9          31.7010    86.7530     2.4360 ca         1 SQV       0.376900
     13 O1          35.6620    85.3190     0.6280 o          1 SQV      -0.474000
     14 O2          33.6960    88.8580     4.7330 os         1 SQV      -0.334100
     15 H1          35.0080    88.6780     2.4770 ha         1 SQV       0.134000
     16 H2          33.4520    89.5320     6.6960 h1         1 SQV       0.044700
     17 H3          31.9460    89.3720     5.7680 h1         1 SQV       0.044700
     18 H4          32.7850    87.9180     6.3710 h1         1 SQV       0.044700
     19 H5          31.3810    87.4070     4.4560 ha         1 SQV       0.126000
     20 H6          32.9400    87.6330    -1.4110 hc         1 SQV       0.049033
     21 H7          34.4840    87.0510    -2.0610 hc         1 SQV       0.049033
     22 H8          33.4370    85.9450    -1.1530 hc         1 SQV       0.049033
     23 H9          34.8810    88.4200    -0.0610 hc         1 SQV       0.075700
     24 H10         38.9850    87.2120     0.4870 h1         1 SQV       0.047700
     25 H11         38.1410    86.0860     1.5710 h1         1 SQV       0.047700
     26 H12         38.2760    85.7200    -0.1670 h1         1 SQV       0.047700
     27 H13         30.7680    86.1930     2.3810 h4         1 SQV       0.017100
@<TRIPOS>BOND
     1     1     2 ar  
     2     1     6 ar  
     3     1     9 1   
     4     2     3 ar  
     5     2    15 1   
     6     3     5 ar  
     7     3    14 1   
     8     4    14 1   
     9     4    16 1   
    10     4    17 1   
    11     4    18 1   
    12     5    12 ar  
    13     5    19 1   
    14     6    12 ar  
    15     7     9 1   
    16     7    20 1   
    17     7    21 1   
    18     7    22 1   
    19     8    10 1   
    20     8    11 1   
    21     9    10 1   
    22     9    23 1   
    23    10    13 2   
    24    11    24 1   
    25    11    25 1   
    26    11    26 1   
    27    12    27 1   
@<TRIPOS>SUBSTRUCTURE
     1 SQV         1 TEMP              0 ****  ****    0 ROOT
