@<TRIPOS>MOLECULE
SQY
   33    34     1     0     0
SMALL
No Charge or Current Charge


@<TRIPOS>ATOM
      1 C4          49.6340   117.8510    32.7820 ca         1 SQY      -0.073300
      2 C5          50.1970   118.8280    33.6270 ca         1 SQY      -0.104000
      3 C6          51.4850   119.3310    33.3700 ca         1 SQY      -0.082500
      4 C7          52.2140   118.8580    32.2670 ca         1 SQY      -0.016900
      5 C8          51.6610   117.8840    31.4210 ca         1 SQY      -0.082500
      6 C10         47.1400   119.4340    32.0900 ca         1 SQY      -0.034300
      7 C13         47.2990   121.5800    30.9600 ca         1 SQY       0.336900
      8 N           47.0950   122.2730    32.1040 nb         1 SQY      -0.661000
      9 C           45.7850   117.3060    32.3280 c          1 SQY       0.594100
     10 O           45.1460   117.4790    33.3590 o          1 SQY      -0.483000
     11 C1          44.0510   115.9320    31.3680 c3         1 SQY       0.150900
     12 C11         46.9280   120.1580    33.2790 ca         1 SQY      -0.154000
     13 C12         46.9130   121.5630    33.2420 ca         1 SQY       0.336900
     14 C14         47.3280   120.1760    30.9090 ca         1 SQY      -0.154000
     15 C2          47.1810   117.9030    32.0690 c3         1 SQY      -0.077400
     16 C3          48.2310   117.3160    33.0480 c3         1 SQY      -0.018100
     17 C9          50.3730   117.3820    31.6780 ca         1 SQY      -0.104000
     18 Br          53.9650   119.5440    31.9160 br         1 SQY      -0.098100
     19 H1          49.6370   119.2030    34.4810 ha         1 SQY       0.117500
     20 H2          51.9140   120.0860    34.0250 ha         1 SQY       0.131000
     21 H3          52.2260   117.5190    30.5660 ha         1 SQY       0.131000
     22 H4          47.4440   122.1700    30.0560 h4         1 SQY       0.020600
     23 H5          43.8270   115.3660    30.4560 h1         1 SQY       0.050700
     24 H6          44.0150   115.2370    32.2170 h1         1 SQY       0.050700
     25 H7          43.2640   116.6860    31.5030 h1         1 SQY       0.050700
     26 H8          46.7740   119.6500    34.2270 ha         1 SQY       0.125500
     27 H9          46.7500   122.1390    34.1520 h4         1 SQY       0.020600
     28 H10         47.5000   119.6800    29.9580 ha         1 SQY       0.125500
     29 H11         47.4770   117.5770    31.0650 hc         1 SQY       0.084700
     30 H12         47.9310   117.5260    34.0820 hc         1 SQY       0.067700
     31 H13         48.2310   116.2230    32.9550 hc         1 SQY       0.067700
     32 H14         49.9490   116.6290    31.0170 ha         1 SQY       0.117500
     33 O1          45.3450   116.5540    31.2680 os         1 SQY      -0.434100
@<TRIPOS>BOND
     1     1     2 ar  
     2     1    16 1   
     3     1    17 ar  
     4     2     3 ar  
     5     2    19 1   
     6     3     4 ar  
     7     3    20 1   
     8     4     5 ar  
     9     4    18 1   
    10     5    17 ar  
    11     5    21 1   
    12     6    12 ar  
    13     6    14 ar  
    14     6    15 1   
    15     7     8 ar  
    16     7    14 ar  
    17     7    22 1   
    18     8    13 ar  
    19     9    10 2   
    20     9    15 1   
    21     9    33 1   
    22    11    23 1   
    23    11    24 1   
    24    11    25 1   
    25    11    33 1   
    26    12    13 ar  
    27    12    26 1   
    28    13    27 1   
    29    14    28 1   
    30    15    16 1   
    31    15    29 1   
    32    16    30 1   
    33    16    31 1   
    34    17    32 1   
@<TRIPOS>SUBSTRUCTURE
     1 SQY         1 TEMP              0 ****  ****    0 ROOT
