@<TRIPOS>MOLECULE
SQY
   33    34     1     0     0
SMALL
bcc


@<TRIPOS>ATOM
      1 C4          49.7210   117.8500    32.8280 ca         1 SQY      -0.073300
      2 C5          50.1430   119.0110    33.4660 ca         1 SQY      -0.122000
      3 C6          51.3610   119.6010    33.1600 ca         1 SQY      -0.100500
      4 C7          52.1690   119.0160    32.1970 ca         1 SQY      -0.016900
      5 C8          51.7770   117.8570    31.5440 ca         1 SQY      -0.100500
      6 C10         47.1600   119.1590    32.0600 ca         1 SQY      -0.034300
      7 C13         47.4650   121.3030    31.0460 ca         1 SQY       0.402200
      8 N           46.9290   121.9470    32.0750 nb         1 SQY      -0.661000
      9 C           46.0060   116.9740    32.3070 c          1 SQY       0.643100
     10 O           45.7640   116.2170    33.2120 o          1 SQY      -0.532000
     11 C1          43.8210   116.7570    31.4580 c3         1 SQY       0.127700
     12 C11         46.5970   119.8310    33.1400 ca         1 SQY      -0.237300
     13 C12         46.5040   121.2130    33.0980 ca         1 SQY       0.402200
     14 C14         47.6020   119.9240    30.9910 ca         1 SQY      -0.237300
     15 C2          47.3390   117.6620    32.0800 c3         1 SQY      -0.077400
     16 C3          48.3820   117.2380    33.1250 c3         1 SQY      -0.018100
     17 C9          50.5550   117.2850    31.8660 ca         1 SQY      -0.122000
     18 BR          53.8310   119.8080    31.7690 br         1 SQY      -0.098100
     19 H1          49.5160   119.4700    34.2200 ha         1 SQY       0.135500
     20 H2          51.6650   120.5050    33.6710 ha         1 SQY       0.149000
     21 H3          52.4070   117.3950    30.7960 ha         1 SQY       0.149000
     22 H4          47.8080   121.9130    30.2170 h4         1 SQY       0.020600
     23 H5          43.2670   117.1730    30.6220 h1         1 SQY       0.050700
     24 H6          43.8460   115.6720    31.3710 h1         1 SQY       0.050700
     25 H7          43.3300   117.0330    32.3910 h1         1 SQY       0.050700
     26 H8          46.2340   119.3000    34.0120 ha         1 SQY       0.143500
     27 H9          46.0680   121.7490    33.9330 h4         1 SQY       0.020600
     28 H10         48.0520   119.4580    30.1240 ha         1 SQY       0.143500
     29 H11         47.6920   117.3510    31.0900 hc         1 SQY       0.084700
     30 H12         48.0470   117.5280    34.1230 hc         1 SQY       0.067700
     31 H13         48.4640   116.1500    33.1200 hc         1 SQY       0.067700
     32 H14         50.2530   116.3770    31.3570 ha         1 SQY       0.135500
     33 O1          45.1330   117.3170    31.3760 os         1 SQY      -0.410900
@<TRIPOS>BOND
     1     1     2 ar  
     2     1    16 1   
     3     1    17 ar  
     4     2     3 ar  
     5     2    19 1   
     6     3     4 ar  
     7     3    20 1   
     8     4     5 ar  
     9     4    18 1   
    10     5    17 ar  
    11     5    21 1   
    12     6    12 ar  
    13     6    14 ar  
    14     6    15 1   
    15     7     8 ar  
    16     7    14 ar  
    17     7    22 1   
    18     8    13 ar  
    19     9    10 2   
    20     9    15 1   
    21     9    33 1   
    22    11    23 1   
    23    11    24 1   
    24    11    25 1   
    25    11    33 1   
    26    12    13 ar  
    27    12    26 1   
    28    13    27 1   
    29    14    28 1   
    30    15    16 1   
    31    15    29 1   
    32    16    30 1   
    33    16    31 1   
    34    17    32 1   
@<TRIPOS>SUBSTRUCTURE
     1 SQY         1 TEMP              0 ****  ****    0 ROOT
