@<TRIPOS>MOLECULE
SQZ
   47    52     1     0     0
SMALL
abcg2


@<TRIPOS>ATOM
      1 F          -21.9790    14.2400   -17.9950 f          1 SQZ      -0.176000
      2 C5         -22.2320    15.5630   -17.8300 ca         1 SQZ       0.175000
      3 C4         -21.3320    16.3270   -17.1090 ca         1 SQZ      -0.142500
      4 C3         -21.5920    17.6820   -16.9600 ca         1 SQZ      -0.073500
      5 C6         -23.3730    16.0990   -18.3950 ca         1 SQZ      -0.142500
      6 C7         -23.6190    17.4590   -18.2290 ca         1 SQZ      -0.073500
      7 C2         -22.7330    18.2610   -17.5170 ca         1 SQZ      -0.138300
      8 C1         -22.9690    19.7440   -17.3000 c3         1 SQZ       0.155600
      9 C          -23.5230    20.0300   -15.9060 c3         1 SQZ      -0.089100
     10 N          -23.8350    20.3110   -18.3430 na         1 SQZ       0.074600
     11 C9         -23.5830    20.4990   -19.6650 ca         1 SQZ      -0.042200
     12 C10        -22.4910    20.2420   -20.5410 ca         1 SQZ      -0.055000
     13 C22        -22.7180    20.6440   -21.8940 ca         1 SQZ       0.279000
     14 N4         -23.8850    21.2240   -22.3480 nb         1 SQZ      -0.675000
     15 C23        -24.8710    21.4240   -21.5180 ca         1 SQZ       0.436900
     16 C8         -24.7580    21.0670   -20.1540 ca         1 SQZ      -0.059600
     17 N2         -25.6510    21.1850   -19.1270 nc         1 SQZ      -0.197400
     18 N1         -25.0930    20.7300   -18.0530 nd         1 SQZ      -0.175400
     19 C21        -21.6900    20.4280   -22.8320 ca         1 SQZ      -0.080000
     20 C20        -20.5080    19.8310   -22.4670 ca         1 SQZ      -0.087000
     21 C12        -20.2840    19.4130   -21.1370 cp         1 SQZ      -0.032000
     22 C11        -21.2720    19.6390   -20.1940 ca         1 SQZ      -0.079000
     23 C13        -19.0300    18.7260   -20.7550 cp         1 SQZ      -0.052000
     24 C19        -17.7990    19.1360   -21.3090 ca         1 SQZ      -0.081000
     25 C18        -16.5930    18.5320   -20.9730 ca         1 SQZ      -0.089000
     26 C17        -16.6730    17.4970   -20.0620 ca         1 SQZ       0.033100
     27 C15        -17.8720    17.0600   -19.4980 ca         1 SQZ       0.050400
     28 C14        -19.0710    17.6700   -19.8400 ca         1 SQZ      -0.038000
     29 O          -15.6670    16.7150   -19.5480 os         1 SQZ      -0.291700
     30 C16        -16.3110    15.8510   -18.7070 cc         1 SQZ       0.543500
     31 N3         -17.5880    15.9940   -18.6330 nd         1 SQZ      -0.568100
     32 H1         -20.4420    15.8730   -16.6940 ha         1 SQZ       0.142500
     33 H2         -20.8880    18.3000   -16.4160 ha         1 SQZ       0.124000
     34 H3         -24.0510    15.4690   -18.9540 ha         1 SQZ       0.142500
     35 H4         -24.5090    17.8860   -18.6730 ha         1 SQZ       0.124000
     36 H5         -22.0140    20.2640   -17.3940 h1         1 SQZ       0.069700
     37 H6         -22.7970    19.6720   -15.1770 hc         1 SQZ       0.058700
     38 H7         -23.6730    21.0990   -15.7580 hc         1 SQZ       0.058700
     39 H8         -24.4660    19.5100   -15.7420 hc         1 SQZ       0.058700
     40 H9         -25.7830    21.8740   -21.8960 h4         1 SQZ       0.042100
     41 H10        -21.8660    20.7310   -23.8560 ha         1 SQZ       0.137000
     42 H11        -19.7480    19.6520   -23.2160 ha         1 SQZ       0.121000
     43 H12        -21.0950    19.3430   -19.1730 ha         1 SQZ       0.120000
     44 H13        -17.7880    19.9630   -22.0060 ha         1 SQZ       0.123000
     45 H14        -15.6540    18.8590   -21.3960 ha         1 SQZ       0.138000
     46 H15        -20.0060    17.3230   -19.4250 ha         1 SQZ       0.139000
     47 H16        -15.6880    15.1380   -18.1900 h5         1 SQZ       0.091800
@<TRIPOS>BOND
     1     1     2 1   
     2     2     3 ar  
     3     2     5 ar  
     4     3     4 ar  
     5     3    32 1   
     6     4     7 ar  
     7     4    33 1   
     8     5     6 ar  
     9     5    34 1   
    10     6     7 ar  
    11     6    35 1   
    12     7     8 1   
    13     8     9 1   
    14     8    10 1   
    15     8    36 1   
    16     9    37 1   
    17     9    38 1   
    18     9    39 1   
    19    10    11 1   
    20    10    18 1   
    21    11    12 ar  
    22    11    16 ar  
    23    12    13 ar  
    24    12    22 ar  
    25    13    14 ar  
    26    13    19 ar  
    27    14    15 ar  
    28    15    16 ar  
    29    15    40 1   
    30    16    17 1   
    31    17    18 2   
    32    19    20 ar  
    33    19    41 1   
    34    20    21 ar  
    35    20    42 1   
    36    21    22 ar  
    37    21    23 1   
    38    22    43 1   
    39    23    24 ar  
    40    23    28 ar  
    41    24    25 ar  
    42    24    44 1   
    43    25    26 ar  
    44    25    45 1   
    45    26    27 ar  
    46    26    29 1   
    47    27    28 ar  
    48    27    31 1   
    49    28    46 1   
    50    29    30 1   
    51    30    31 2   
    52    30    47 1   
@<TRIPOS>SUBSTRUCTURE
     1 SQZ         1 TEMP              0 ****  ****    0 ROOT
