@<TRIPOS>MOLECULE
SQZ
   47    52     1     0     0
SMALL
No Charge or Current Charge


@<TRIPOS>ATOM
      1 F          -21.9890    14.1230   -17.9020 f          1 SQZ      -0.176000
      2 C5         -22.2330    15.4450   -17.7760 ca         1 SQZ       0.175000
      3 C4         -21.3000    16.2680   -17.1300 ca         1 SQZ      -0.142500
      4 C3         -21.5510    17.6450   -17.0020 ca         1 SQZ      -0.073500
      5 C6         -23.4180    15.9890   -18.2900 ca         1 SQZ      -0.142500
      6 C7         -23.6740    17.3660   -18.1630 ca         1 SQZ      -0.073500
      7 C2         -22.7370    18.2090   -17.5210 ca         1 SQZ      -0.138300
      8 C1         -22.9740    19.7200   -17.3740 c3         1 SQZ       0.155600
      9 C          -23.3850    20.0460   -15.9170 c3         1 SQZ      -0.089100
     10 N          -23.9000    20.2930   -18.3890 na         1 SQZ       0.074600
     11 C9         -23.6380    20.5240   -19.7240 ca         1 SQZ      -0.042200
     12 C10        -22.5550    20.2850   -20.6110 ca         1 SQZ      -0.055000
     13 C22        -22.7390    20.7070   -21.9640 ca         1 SQZ       0.279000
     14 N4         -23.8840    21.2970   -22.4010 nb         1 SQZ      -0.675000
     15 C23        -24.8990    21.4890   -21.5200 ca         1 SQZ       0.436900
     16 C8         -24.7870    21.1020   -20.1760 ca         1 SQZ      -0.059600
     17 N2         -25.7330    21.2150   -19.1640 nc         1 SQZ      -0.197400
     18 N1         -25.1810    20.7130   -18.0650 nd         1 SQZ      -0.175400
     19 C21        -21.6980    20.5010   -22.8850 ca         1 SQZ      -0.080000
     20 C20        -20.4980    19.8820   -22.5020 ca         1 SQZ      -0.087000
     21 C12        -20.3020    19.4440   -21.1750 cp         1 SQZ      -0.032000
     22 C11        -21.3420    19.6620   -20.2410 ca         1 SQZ      -0.079000
     23 C13        -19.0360    18.7610   -20.7650 cp         1 SQZ      -0.052000
     24 C19        -17.7720    19.1870   -21.2740 ca         1 SQZ      -0.081000
     25 C18        -16.5760    18.5480   -20.8850 ca         1 SQZ      -0.089000
     26 C17        -16.6700    17.4820   -19.9850 ca         1 SQZ       0.033100
     27 C15        -17.8620    17.0510   -19.4860 ca         1 SQZ       0.050400
     28 C14        -19.0650    17.6660   -19.8550 ca         1 SQZ      -0.038000
     29 O          -15.6480    16.7420   -19.4930 os         1 SQZ      -0.291700
     30 C16        -16.3290    15.8470   -18.6710 cc         1 SQZ       0.543500
     31 N3         -17.6700    15.9880   -18.6300 nd         1 SQZ      -0.568100
     32 H1         -20.3820    15.8400   -16.7360 ha         1 SQZ       0.142500
     33 H2         -20.8180    18.2760   -16.5030 ha         1 SQZ       0.124000
     34 H3         -24.1380    15.3430   -18.7860 ha         1 SQZ       0.142500
     35 H4         -24.6030    17.7660   -18.5640 ha         1 SQZ       0.124000
     36 H5         -22.0150    20.2320   -17.5190 h1         1 SQZ       0.069700
     37 H6         -22.6170    19.7030   -15.2130 hc         1 SQZ       0.058700
     38 H7         -23.5080    21.1270   -15.7790 hc         1 SQZ       0.058700
     39 H8         -24.3280    19.5500   -15.6560 hc         1 SQZ       0.058700
     40 H9         -25.8080    21.9550   -21.9010 h4         1 SQZ       0.042100
     41 H10        -21.8280    20.8190   -23.9160 ha         1 SQZ       0.137000
     42 H11        -19.7230    19.7230   -23.2480 ha         1 SQZ       0.121000
     43 H12        -21.1700    19.3390   -19.2270 ha         1 SQZ       0.120000
     44 H13        -17.7210    20.0270   -21.9630 ha         1 SQZ       0.123000
     45 H14        -15.6120    18.8740   -21.2680 ha         1 SQZ       0.138000
     46 H15        -20.0050    17.2940   -19.4600 ha         1 SQZ       0.139000
     47 H16        -15.7420    15.1120   -18.1320 h5         1 SQZ       0.091800
@<TRIPOS>BOND
     1     1     2 1   
     2     2     3 ar  
     3     2     5 ar  
     4     3     4 ar  
     5     3    32 1   
     6     4     7 ar  
     7     4    33 1   
     8     5     6 ar  
     9     5    34 1   
    10     6     7 ar  
    11     6    35 1   
    12     7     8 1   
    13     8     9 1   
    14     8    10 1   
    15     8    36 1   
    16     9    37 1   
    17     9    38 1   
    18     9    39 1   
    19    10    11 1   
    20    10    18 1   
    21    11    12 ar  
    22    11    16 ar  
    23    12    13 ar  
    24    12    22 ar  
    25    13    14 ar  
    26    13    19 ar  
    27    14    15 ar  
    28    15    16 ar  
    29    15    40 1   
    30    16    17 1   
    31    17    18 2   
    32    19    20 ar  
    33    19    41 1   
    34    20    21 ar  
    35    20    42 1   
    36    21    22 ar  
    37    21    23 1   
    38    22    43 1   
    39    23    24 ar  
    40    23    28 ar  
    41    24    25 ar  
    42    24    44 1   
    43    25    26 ar  
    44    25    45 1   
    45    26    27 ar  
    46    26    29 1   
    47    27    28 ar  
    48    27    31 1   
    49    28    46 1   
    50    29    30 1   
    51    30    31 2   
    52    30    47 1   
@<TRIPOS>SUBSTRUCTURE
     1 SQZ         1 TEMP              0 ****  ****    0 ROOT
