@<TRIPOS>MOLECULE
SR0
   32    31     1     0     0
SMALL
bcc


@<TRIPOS>ATOM
      1 N1           5.6060     0.2660     0.0130 nz         1 SR0      -0.836600
      2 C2           4.3470    -0.5220     0.0140 c3         1 SR0       0.128800
      3 C3           3.1360     0.3880    -0.0000 c3         1 SR0      -0.102400
      4 C4           1.8540    -0.4370    -0.0060 c3         1 SR0      -0.102400
      5 C5           0.6410     0.4710    -0.0120 c3         1 SR0       0.124800
      6 N6          -0.6190    -0.3220    -0.0140 ny         1 SR0      -0.765000
      7 C7          -1.8480     0.5130    -0.0020 c3         1 SR0       0.126800
      8 C8          -3.0910    -0.3560    -0.0330 c3         1 SR0      -0.139400
      9 C9          -4.3220     0.5310    -0.0410 c3         1 SR0       0.132800
     10 N10         -5.5580    -0.2860    -0.0740 nz         1 SR0      -0.836600
     11 H1           5.6720     0.8810     0.8240 hn         1 SR0       0.474467
     12 H2           6.4260    -0.3390     0.0330 hn         1 SR0       0.474467
     13 H3           5.6890     0.8510    -0.8180 hn         1 SR0       0.474467
     14 H4           4.3790    -1.1650    -0.8630 hx         1 SR0       0.118700
     15 H5           4.3690    -1.1480     0.9040 hx         1 SR0       0.118700
     16 H6           3.1540     1.0390     0.8770 hc         1 SR0       0.083700
     17 H7           3.1670     1.0310    -0.8830 hc         1 SR0       0.083700
     18 H8           1.8360    -1.0850    -0.8870 hc         1 SR0       0.083700
     19 H9           1.8270    -1.0840     0.8750 hc         1 SR0       0.083700
     20 H10          0.6130     1.1070     0.8720 hx         1 SR0       0.116700
     21 H11          0.6180     1.1040    -0.8980 hx         1 SR0       0.116700
     22 H12         -0.6310    -0.9320    -0.8330 hn         1 SR0       0.459300
     23 H13         -0.6260    -0.9470     0.7950 hn         1 SR0       0.459300
     24 H14         -1.8090     1.1250     0.8980 hx         1 SR0       0.123200
     25 H15         -1.7960     1.1670    -0.8710 hx         1 SR0       0.123200
     26 H16         -3.0840    -0.9850    -0.9260 hc         1 SR0       0.092200
     27 H17         -3.1110    -1.0120     0.8400 hc         1 SR0       0.092200
     28 H18         -4.3770     1.1520     0.8510 hx         1 SR0       0.127200
     29 H19         -4.3460     1.1770    -0.9160 hx         1 SR0       0.127200
     30 H20         -6.3900     0.3030    -0.0920 hn         1 SR0       0.479133
     31 H21         -5.6010    -0.8830    -0.9010 hn         1 SR0       0.479133
     32 H22         -5.6410    -0.8910     0.7430 hn         1 SR0       0.479133
@<TRIPOS>BOND
     1     1     2 1   
     2     1    11 1   
     3     1    12 1   
     4     1    13 1   
     5     2     3 1   
     6     2    14 1   
     7     2    15 1   
     8     3     4 1   
     9     3    16 1   
    10     3    17 1   
    11     4     5 1   
    12     4    18 1   
    13     4    19 1   
    14     5     6 1   
    15     5    20 1   
    16     5    21 1   
    17     6     7 1   
    18     6    22 1   
    19     6    23 1   
    20     7     8 1   
    21     7    24 1   
    22     7    25 1   
    23     8     9 1   
    24     8    26 1   
    25     8    27 1   
    26     9    10 1   
    27     9    28 1   
    28     9    29 1   
    29    10    30 1   
    30    10    31 1   
    31    10    32 1   
@<TRIPOS>SUBSTRUCTURE
     1 SR0         1 TEMP              0 ****  ****    0 ROOT
