@<TRIPOS>MOLECULE
SR0
   32    31     1     0     0
SMALL
No Charge or Current Charge


@<TRIPOS>ATOM
      1 N1           5.7370     0.1860     0.0230 nz         1 SR0      -0.974000
      2 C2           4.4410    -0.5880     0.0100 c3         1 SR0       0.100600
      3 C3           3.2330     0.3650     0.0070 c3         1 SR0      -0.102400
      4 C4           1.8830    -0.3870    -0.0060 c3         1 SR0      -0.102400
      5 C5           0.6770     0.5680    -0.0090 c3         1 SR0       0.096600
      6 N6          -0.6370    -0.2100    -0.0220 ny         1 SR0      -0.819000
      7 C7          -1.9170     0.6230    -0.0260 c3         1 SR0       0.098600
      8 C8          -3.1570    -0.2860    -0.0400 c3         1 SR0      -0.139400
      9 C9          -4.4690     0.5150    -0.0440 c3         1 SR0       0.104600
     10 N10         -5.6580    -0.4170    -0.0580 nz         1 SR0      -0.974000
     11 H1           5.8470     0.7950     0.8500 hn         1 SR0       0.529667
     12 H2           6.5730    -0.4210     0.0260 hn         1 SR0       0.529667
     13 H3           5.8590     0.8040    -0.7940 hn         1 SR0       0.529667
     14 H4           4.4050    -1.2260    -0.8820 hx         1 SR0       0.118700
     15 H5           4.3930    -1.2360     0.8940 hx         1 SR0       0.118700
     16 H6           3.2800     1.0100     0.8940 hc         1 SR0       0.083700
     17 H7           3.2920     1.0200    -0.8710 hc         1 SR0       0.083700
     18 H8           1.8360    -1.0310    -0.8940 hc         1 SR0       0.083700
     19 H9           1.8240    -1.0410     0.8730 hc         1 SR0       0.083700
     20 H10          0.7110     1.2040     0.8820 hx         1 SR0       0.116700
     21 H11          0.7230     1.2150    -0.8920 hx         1 SR0       0.116700
     22 H12         -0.6450    -0.8600    -0.8390 hn         1 SR0       0.514500
     23 H13         -0.6560    -0.8700     0.7870 hn         1 SR0       0.514500
     24 H14         -1.9350     1.2610     0.8640 hx         1 SR0       0.123200
     25 H15         -1.9230     1.2720    -0.9090 hx         1 SR0       0.123200
     26 H16         -3.1240    -0.9290    -0.9280 hc         1 SR0       0.092200
     27 H17         -3.1360    -0.9400     0.8410 hc         1 SR0       0.092200
     28 H18         -4.5140     1.1540     0.8470 hx         1 SR0       0.127200
     29 H19         -4.5020     1.1640    -0.9290 hx         1 SR0       0.127200
     30 H20         -6.5650     0.0790    -0.0610 hn         1 SR0       0.534333
     31 H21         -5.6910    -1.0360    -0.8830 hn         1 SR0       0.534333
     32 H22         -5.7020    -1.0460     0.7600 hn         1 SR0       0.534333
@<TRIPOS>BOND
     1     1     2 1   
     2     1    11 1   
     3     1    12 1   
     4     1    13 1   
     5     2     3 1   
     6     2    14 1   
     7     2    15 1   
     8     3     4 1   
     9     3    16 1   
    10     3    17 1   
    11     4     5 1   
    12     4    18 1   
    13     4    19 1   
    14     5     6 1   
    15     5    20 1   
    16     5    21 1   
    17     6     7 1   
    18     6    22 1   
    19     6    23 1   
    20     7     8 1   
    21     7    24 1   
    22     7    25 1   
    23     8     9 1   
    24     8    26 1   
    25     8    27 1   
    26     9    10 1   
    27     9    28 1   
    28     9    29 1   
    29    10    30 1   
    30    10    31 1   
    31    10    32 1   
@<TRIPOS>SUBSTRUCTURE
     1 SR0         1 TEMP              0 ****  ****    0 ROOT
