@<TRIPOS>MOLECULE
SR1
   23    23     1     0     0
SMALL
bcc


@<TRIPOS>ATOM
      1 CS           4.2210    -0.1330    -0.3570 c3         1 SR1      -0.017000
      2 S            2.7010     0.5440     0.3450 ss         1 SR1      -0.302200
      3 C5           1.4920    -0.5360    -0.4710 c3         1 SR1       0.005700
      4 C4           0.1020    -0.2650     0.0600 c5         1 SR1       0.167100
      5 O4          -0.2730     1.0750    -0.2100 os         1 SR1      -0.424600
      6 C1          -1.6370     1.1550    -0.5950 c5         1 SR1       0.305900
      7 O1          -2.3210     2.0740     0.1780 oh         1 SR1      -0.596800
      8 C2          -2.2190    -0.2470    -0.3870 c5         1 SR1       0.088100
      9 O2          -2.6610    -0.4520     0.9260 oh         1 SR1      -0.567800
     10 C3          -0.9800    -1.1070    -0.6180 c5         1 SR1       0.121100
     11 O3          -1.0070    -2.3910    -0.0750 oh         1 SR1      -0.560800
     12 HS1          5.0560     0.4240     0.0650 h1         1 SR1       0.058367
     13 HS2          4.3380    -1.1850    -0.1030 h1         1 SR1       0.058367
     14 HS3          4.2400    -0.0180    -1.4400 h1         1 SR1       0.058367
     15 H5'1         1.5280    -0.3780    -1.5520 h1         1 SR1       0.065700
     16 H5'2         1.7520    -1.5770    -0.2690 h1         1 SR1       0.065700
     17 H4           0.0850    -0.4570     1.1420 h1         1 SR1       0.093700
     18 H1          -1.6750     1.4330    -1.6560 h2         1 SR1       0.039700
     19 HO'1        -2.2190     2.9540    -0.1970 ho         1 SR1       0.427000
     20 H2          -3.0120    -0.4460    -1.1190 h1         1 SR1       0.046700
     21 HO'2        -3.3000     0.2360     1.1400 ho         1 SR1       0.424000
     22 H3          -0.7830    -1.1280    -1.7000 h1         1 SR1       0.036700
     23 HO'3        -1.6070    -2.9350    -0.5950 ho         1 SR1       0.411000
@<TRIPOS>BOND
     1     1     2 1   
     2     1    12 1   
     3     1    13 1   
     4     1    14 1   
     5     2     3 1   
     6     3     4 1   
     7     3    15 1   
     8     3    16 1   
     9     4     5 1   
    10     4    10 1   
    11     4    17 1   
    12     5     6 1   
    13     6     7 1   
    14     6     8 1   
    15     6    18 1   
    16     7    19 1   
    17     8     9 1   
    18     8    10 1   
    19     8    20 1   
    20     9    21 1   
    21    10    11 1   
    22    10    22 1   
    23    11    23 1   
@<TRIPOS>SUBSTRUCTURE
     1 SR1         1 TEMP              0 ****  ****    0 ROOT
