@<TRIPOS>MOLECULE
SR1
   23    23     1     0     0
SMALL
No Charge or Current Charge


@<TRIPOS>ATOM
      1 CS           4.2940    -0.0580    -0.1940 c3         1 SR1       0.030900
      2 S            2.6810     0.5750     0.4520 ss         1 SR1      -0.398000
      3 C5           1.5110    -0.5230    -0.4810 c3         1 SR1       0.053600
      4 C4           0.0240    -0.2370    -0.1650 c5         1 SR1       0.190300
      5 O4          -0.3600     1.0640    -0.6590 os         1 SR1      -0.471000
      6 C1          -1.7930     1.1120    -0.7150 c5         1 SR1       0.352300
      7 O1          -2.2560     1.8720     0.3920 oh         1 SR1      -0.719000
      8 C2          -2.3030    -0.3800    -0.6070 c5         1 SR1       0.111300
      9 O2          -2.7750    -0.6570     0.7270 oh         1 SR1      -0.690000
     10 C3          -0.9910    -1.1670    -0.8940 c5         1 SR1       0.144300
     11 O3          -1.0700    -2.4910    -0.3560 oh         1 SR1      -0.683000
     12 HS1          5.1210     0.4970     0.2670 h1         1 SR1       0.058367
     13 HS2          4.4000    -1.1240     0.0460 h1         1 SR1       0.058367
     14 HS3          4.3370     0.0730    -1.2830 h1         1 SR1       0.058367
     15 H5'1         1.6800    -0.3960    -1.5580 h1         1 SR1       0.065700
     16 H5'2         1.7320    -1.5670    -0.2240 h1         1 SR1       0.065700
     17 H4          -0.1190    -0.2680     0.9240 h1         1 SR1       0.093700
     18 H1          -2.1090     1.5720    -1.6600 h2         1 SR1       0.039700
     19 HO'1        -1.7230     2.6990     0.3630 ho         1 SR1       0.526000
     20 H2          -3.0810    -0.5960    -1.3520 h1         1 SR1       0.046700
     21 HO'2        -2.8320     0.2550     1.1200 ho         1 SR1       0.523000
     22 H3          -0.7780    -1.2010    -1.9710 h1         1 SR1       0.036700
     23 HO'3        -1.7710    -2.4140     0.3390 ho         1 SR1       0.510000
@<TRIPOS>BOND
     1     1     2 1   
     2     1    12 1   
     3     1    13 1   
     4     1    14 1   
     5     2     3 1   
     6     3     4 1   
     7     3    15 1   
     8     3    16 1   
     9     4     5 1   
    10     4    10 1   
    11     4    17 1   
    12     5     6 1   
    13     6     7 1   
    14     6     8 1   
    15     6    18 1   
    16     7    19 1   
    17     8     9 1   
    18     8    10 1   
    19     8    20 1   
    20     9    21 1   
    21    10    11 1   
    22    10    22 1   
    23    11    23 1   
@<TRIPOS>SUBSTRUCTURE
     1 SR1         1 TEMP              0 ****  ****    0 ROOT
