@<TRIPOS>MOLECULE
SR2
   47    49     1     0     0
SMALL
No Charge or Current Charge


@<TRIPOS>ATOM
      1 C4           3.6260     1.2010     0.4650 ca         1 SR2      -0.104000
      2 C3           4.6330     2.1790     0.4160 ca         1 SR2       0.008100
      3 BrR1         6.2930     1.8830     1.3190 br         1 SR2      -0.096100
      4 C22          4.4230     3.3760    -0.2860 ca         1 SR2      -0.113000
      5 C21          3.1980     3.5980    -0.9350 ca         1 SR2      -0.081000
      6 C20          2.1910     2.6170    -0.8850 ca         1 SR2      -0.163000
      7 C5           2.4010     1.4090    -0.1970 ca         1 SR2       0.309000
      8 N1           1.3600     0.4740    -0.1670 nu         1 SR2      -0.930900
      9 C6           1.2930    -0.9120     0.0050 ca         1 SR2       0.399900
     10 C7           0.0600    -1.5800     0.2230 ca         1 SR2      -0.139000
     11 C8          -1.1760    -0.8980     0.3320 ca         1 SR2      -0.150000
     12 N3           2.4470    -1.5920    -0.1010 nb         1 SR2      -0.272000
     13 C19          2.3770    -2.9300     0.0280 ca         1 SR2       0.161900
     14 N2           1.2640    -3.6590     0.2420 nb         1 SR2      -0.189000
     15 C18          0.0950    -2.9910     0.3400 ca         1 SR2       0.026000
     16 C17         -1.1040    -3.6900     0.5600 ca         1 SR2      -0.073000
     17 C13         -2.3290    -3.0080     0.6640 ca         1 SR2      -0.091000
     18 C9          -2.3740    -1.6030     0.5500 ca         1 SR2      -0.018000
     19 N11         -3.5730    -0.8430     0.6500 ns         1 SR2      -0.148000
     20 C10         -4.9040    -1.2100     0.7990 c          1 SR2       0.615300
     21 O61         -5.3050    -2.3660     0.8470 o          1 SR2      -0.580100
     22 C11         -5.8380    -0.0510     0.8620 ce         1 SR2      -0.315200
     23 C51         -7.1900    -0.1600     0.8600 c2         1 SR2      -0.109200
     24 C61         -8.1710     0.9960     0.8990 c3         1 SR2       0.182000
     25 N63         -7.9480     1.9760    -0.1920 n3         1 SR2      -0.705600
     26 C65         -8.1240     1.3990    -1.5460 c3         1 SR2       0.145600
     27 C67         -8.7370     3.2140    -0.0060 c3         1 SR2       0.145600
     28 H4           3.7970     0.2930     1.0330 ha         1 SR2       0.172000
     29 H22          5.2040     4.1330    -0.3220 ha         1 SR2       0.132000
     30 H21          3.0280     4.5270    -1.4760 ha         1 SR2       0.117000
     31 H20          1.2460     2.7980    -1.3910 ha         1 SR2       0.109000
     32 HN1          0.4540     0.8760    -0.3940 hn         1 SR2       0.496000
     33 H8          -1.2190     0.1860     0.2560 ha         1 SR2       0.101000
     34 H19          3.3130    -3.4800    -0.0540 h5         1 SR2       0.049100
     35 H17         -1.0870    -4.7730     0.6520 ha         1 SR2       0.140000
     36 H13         -3.2260    -3.5930     0.8390 ha         1 SR2       0.152000
     37 HN11        -3.4260     0.1560     0.6080 hn         1 SR2       0.150000
     38 H111        -5.3770     0.9360     0.8710 ha         1 SR2       0.177000
     39 H511        -7.6720    -1.1390     0.8300 ha         1 SR2       0.198000
     40 H611        -9.1960     0.6020     0.8490 h1         1 SR2       0.042700
     41 H612        -8.0690     1.4940     1.8730 h1         1 SR2       0.042700
     42 H651        -9.1550     1.0490    -1.6920 h1         1 SR2       0.034033
     43 H652        -7.9040     2.1480    -2.3180 h1         1 SR2       0.034033
     44 H653        -7.4460     0.5490    -1.7050 h1         1 SR2       0.034033
     45 H671        -9.8140     3.0050    -0.0590 h1         1 SR2       0.034033
     46 H672        -8.5230     3.6690     0.9710 h1         1 SR2       0.034033
     47 H673        -8.4920     3.9520    -0.7810 h1         1 SR2       0.034033
@<TRIPOS>BOND
     1     1     2 ar  
     2     1     7 ar  
     3     1    28 1   
     4     2     3 1   
     5     2     4 ar  
     6     4     5 ar  
     7     4    29 1   
     8     5     6 ar  
     9     5    30 1   
    10     6     7 ar  
    11     6    31 1   
    12     7     8 1   
    13     8     9 1   
    14     8    32 1   
    15     9    10 ar  
    16     9    12 ar  
    17    10    11 ar  
    18    10    15 ar  
    19    11    18 ar  
    20    11    33 1   
    21    12    13 ar  
    22    13    14 ar  
    23    13    34 1   
    24    14    15 ar  
    25    15    16 ar  
    26    16    17 ar  
    27    16    35 1   
    28    17    18 ar  
    29    17    36 1   
    30    18    19 1   
    31    19    20 1   
    32    19    37 1   
    33    20    21 2   
    34    20    22 1   
    35    22    23 2   
    36    22    38 1   
    37    23    24 1   
    38    23    39 1   
    39    24    25 1   
    40    24    40 1   
    41    24    41 1   
    42    25    26 1   
    43    25    27 1   
    44    26    42 1   
    45    26    43 1   
    46    26    44 1   
    47    27    45 1   
    48    27    46 1   
    49    27    47 1   
@<TRIPOS>SUBSTRUCTURE
     1 SR2         1 TEMP              0 ****  ****    0 ROOT
