@<TRIPOS>MOLECULE
SR2
   47    49     1     0     0
SMALL
abcg2


@<TRIPOS>ATOM
      1 C4           4.1540     0.7770     0.4190 ca         1 SR2      -0.104000
      2 C3           5.2270     1.6550     0.4830 ca         1 SR2       0.008100
      3 BRR1         6.9620     0.9320     0.6850 br         1 SR2      -0.096100
      4 C22          5.0770     3.0290     0.4040 ca         1 SR2      -0.113000
      5 C21          3.7900     3.5320     0.2600 ca         1 SR2      -0.081000
      6 C20          2.6990     2.6870     0.1950 ca         1 SR2      -0.163000
      7 C5           2.8680     1.3000     0.2720 ca         1 SR2       0.309000
      8 N1           1.7040     0.5360     0.2020 nu         1 SR2      -0.930900
      9 C6           1.5200    -0.8050     0.1840 ca         1 SR2       0.399900
     10 C7           0.1810    -1.3350     0.1040 ca         1 SR2      -0.139000
     11 C8          -0.9910    -0.5650     0.0630 ca         1 SR2      -0.150000
     12 N3           2.5560    -1.6090     0.2360 nb         1 SR2      -0.272000
     13 C19          2.3350    -2.9330     0.2060 ca         1 SR2       0.161900
     14 N2           1.1910    -3.5410     0.1300 nb         1 SR2      -0.189000
     15 C18          0.0930    -2.7410     0.0790 ca         1 SR2       0.026000
     16 C17         -1.1820    -3.3310    -0.0050 ca         1 SR2      -0.073000
     17 C13         -2.3200    -2.5730    -0.0520 ca         1 SR2      -0.091000
     18 C9          -2.2330    -1.1630    -0.0090 ca         1 SR2      -0.018000
     19 N11         -3.3500    -0.3300    -0.0750 ns         1 SR2      -0.148000
     20 C10         -4.6440    -0.6220     0.2360 c          1 SR2       0.615300
     21 O61         -5.0220    -1.7260     0.5890 o          1 SR2      -0.580100
     22 C11         -5.5500     0.5420     0.0990 ce         1 SR2      -0.315200
     23 C51         -6.8500     0.4400     0.3620 c2         1 SR2      -0.109200
     24 C61         -7.8070     1.5850     0.2780 c3         1 SR2       0.182000
     25 N63         -8.9540     1.2990    -0.5700 n3         1 SR2      -0.705600
     26 C65         -9.8490     0.3250     0.0200 c3         1 SR2       0.145600
     27 C67         -9.6660     2.5190    -0.8860 c3         1 SR2       0.145600
     28 H4           4.3010    -0.2880     0.4820 ha         1 SR2       0.172000
     29 H22          5.9260     3.6970     0.4520 ha         1 SR2       0.132000
     30 H21          3.6390     4.6010     0.2000 ha         1 SR2       0.117000
     31 H20          1.7060     3.1030     0.0830 ha         1 SR2       0.109000
     32 HN1          0.8710     1.0980     0.1310 hn         1 SR2       0.496000
     33 H8          -0.9550     0.5170     0.0930 ha         1 SR2       0.101000
     34 H19          3.2250    -3.5510     0.2510 h5         1 SR2       0.049100
     35 H17         -1.2480    -4.4100    -0.0380 ha         1 SR2       0.140000
     36 H13         -3.2760    -3.0610    -0.1330 ha         1 SR2       0.152000
     37 HN11        -3.1510     0.6360    -0.2850 hn         1 SR2       0.150000
     38 H111        -5.1270     1.4880    -0.2240 ha         1 SR2       0.177000
     39 H511        -7.2410    -0.5200     0.6830 ha         1 SR2       0.198000
     40 H611        -8.1200     1.8540     1.3040 h1         1 SR2       0.042700
     41 H612        -7.2880     2.4570    -0.1260 h1         1 SR2       0.042700
     42 H651       -10.2520     0.6450     0.9940 h1         1 SR2       0.034033
     43 H652       -10.6940     0.1540    -0.6480 h1         1 SR2       0.034033
     44 H653        -9.3510    -0.6340     0.1640 h1         1 SR2       0.034033
     45 H671       -10.0840     3.0220    -0.0010 h1         1 SR2       0.034033
     46 H672        -9.0010     3.2240    -1.3890 h1         1 SR2       0.034033
     47 H673       -10.4920     2.3000    -1.5640 h1         1 SR2       0.034033
@<TRIPOS>BOND
     1     1     2 ar  
     2     1     7 ar  
     3     1    28 1   
     4     2     3 1   
     5     2     4 ar  
     6     4     5 ar  
     7     4    29 1   
     8     5     6 ar  
     9     5    30 1   
    10     6     7 ar  
    11     6    31 1   
    12     7     8 1   
    13     8     9 1   
    14     8    32 1   
    15     9    10 ar  
    16     9    12 ar  
    17    10    11 ar  
    18    10    15 ar  
    19    11    18 ar  
    20    11    33 1   
    21    12    13 ar  
    22    13    14 ar  
    23    13    34 1   
    24    14    15 ar  
    25    15    16 ar  
    26    16    17 ar  
    27    16    35 1   
    28    17    18 ar  
    29    17    36 1   
    30    18    19 1   
    31    19    20 1   
    32    19    37 1   
    33    20    21 2   
    34    20    22 1   
    35    22    23 2   
    36    22    38 1   
    37    23    24 1   
    38    23    39 1   
    39    24    25 1   
    40    24    40 1   
    41    24    41 1   
    42    25    26 1   
    43    25    27 1   
    44    26    42 1   
    45    26    43 1   
    46    26    44 1   
    47    27    45 1   
    48    27    46 1   
    49    27    47 1   
@<TRIPOS>SUBSTRUCTURE
     1 SR2         1 TEMP              0 ****  ****    0 ROOT
