@<TRIPOS>MOLECULE
SR4
   23    24     1     0     0
SMALL
No Charge or Current Charge


@<TRIPOS>ATOM
      1 C4          48.6630   116.0320    32.2290 c3         1 SR4       0.176600
      2 C5          51.1130   115.9010    32.2440 ca         1 SR4       0.096100
      3 C6          51.9230   116.6180    33.1400 ca         1 SR4      -0.141000
      4 C7          53.1670   117.1150    32.7200 ca         1 SR4      -0.129000
      5 C8          53.5990   116.8920    31.4020 ca         1 SR4      -0.137000
      6 C10         51.5520   115.6400    30.9240 ca         1 SR4      -0.010800
      7 O           50.5770   113.1270    28.3780 o          1 SR4      -0.719000
      8 C1          50.6800   114.8620    29.9810 ce         1 SR4      -0.111400
      9 C2          49.3590   115.1730    29.9030 c2         1 SR4      -0.239200
     10 C3          48.6810   116.2750    30.6960 c3         1 SR4      -0.072200
     11 C9          52.7960   116.1610    30.5080 ca         1 SR4      -0.065000
     12 O1          52.4610   113.4250    29.3500 o          1 SR4      -0.719000
     13 O2          49.8960   115.4270    32.6800 os         1 SR4      -0.376100
     14 H1          48.4960   116.9900    32.7390 h1         1 SR4       0.028200
     15 H2          47.8210   115.3730    32.4780 h1         1 SR4       0.028200
     16 H3          51.5820   116.7950    34.1570 ha         1 SR4       0.101000
     17 H4          53.7920   117.6770    33.4110 ha         1 SR4       0.090000
     18 H5          54.5580   117.2850    31.0720 ha         1 SR4       0.096000
     19 H6          48.6920   114.6170    29.2400 ha         1 SR4       0.196000
     20 H7          49.1850   117.2290    30.5000 hc         1 SR4       0.034200
     21 H8          47.6480   116.4080    30.3520 hc         1 SR4       0.034200
     22 H9          53.1410   116.0010    29.4900 ha         1 SR4       0.133000
     23 C           51.2890   113.7270    29.1720 c          1 SR4       0.706200
@<TRIPOS>BOND
     1     1    10 1   
     2     1    13 1   
     3     1    14 1   
     4     1    15 1   
     5     2     3 ar  
     6     2     6 ar  
     7     2    13 1   
     8     3     4 ar  
     9     3    16 1   
    10     4     5 ar  
    11     4    17 1   
    12     5    11 ar  
    13     5    18 1   
    14     6     8 1   
    15     6    11 ar  
    16     7    23 1   
    17     8     9 2   
    18     8    23 1   
    19     9    10 1   
    20     9    19 1   
    21    10    20 1   
    22    10    21 1   
    23    11    22 1   
    24    12    23 1   
@<TRIPOS>SUBSTRUCTURE
     1 SR4         1 TEMP              0 ****  ****    0 ROOT
