@<TRIPOS>MOLECULE
SR4
   23    24     1     0     0
SMALL
abcg2


@<TRIPOS>ATOM
      1 C4          48.6820   115.9630    32.2190 c3         1 SR4       0.176600
      2 C5          51.0990   115.9620    32.2240 ca         1 SR4       0.096100
      3 C6          51.8930   116.7120    33.0880 ca         1 SR4      -0.141000
      4 C7          53.1390   117.1640    32.6730 ca         1 SR4      -0.129000
      5 C8          53.5910   116.8640    31.3900 ca         1 SR4      -0.137000
      6 C10         51.5340   115.6490    30.9260 ca         1 SR4      -0.010800
      7 O           50.6040   113.4030    28.1380 o          1 SR4      -0.719000
      8 C1          50.6640   114.8960    29.9980 ce         1 SR4      -0.111400
      9 C2          49.3610   115.1950    29.9180 c2         1 SR4      -0.239200
     10 C3          48.7250   116.2860    30.7280 c3         1 SR4      -0.072200
     11 C9          52.7970   116.1110    30.5360 ca         1 SR4      -0.065000
     12 O1          52.3140   113.2370    29.5770 o          1 SR4      -0.719000
     13 O2          49.9260   115.4370    32.7180 os         1 SR4      -0.376100
     14 H1          48.4170   116.8610    32.7890 h1         1 SR4       0.028200
     15 H2          47.9490   115.1850    32.4310 h1         1 SR4       0.028200
     16 H3          51.5240   116.9230    34.0830 ha         1 SR4       0.101000
     17 H4          53.7540   117.7460    33.3480 ha         1 SR4       0.090000
     18 H5          54.5610   117.2120    31.0580 ha         1 SR4       0.096000
     19 H6          48.7460   114.6280    29.2310 ha         1 SR4       0.196000
     20 H7          49.2890   117.2150    30.5930 hc         1 SR4       0.034200
     21 H8          47.7030   116.4790    30.3980 hc         1 SR4       0.034200
     22 H9          53.1530   115.8670    29.5440 ha         1 SR4       0.133000
     23 C           51.2460   113.7560    29.1600 c          1 SR4       0.706200
@<TRIPOS>BOND
     1     1    10 1   
     2     1    13 1   
     3     1    14 1   
     4     1    15 1   
     5     2     3 ar  
     6     2     6 ar  
     7     2    13 1   
     8     3     4 ar  
     9     3    16 1   
    10     4     5 ar  
    11     4    17 1   
    12     5    11 ar  
    13     5    18 1   
    14     6     8 1   
    15     6    11 ar  
    16     7    23 1   
    17     8     9 2   
    18     8    23 1   
    19     9    10 1   
    20     9    19 1   
    21    10    20 1   
    22    10    21 1   
    23    11    22 1   
    24    12    23 1   
@<TRIPOS>SUBSTRUCTURE
     1 SR4         1 TEMP              0 ****  ****    0 ROOT
