@<TRIPOS>MOLECULE
SR5
   63    66     1     0     0
SMALL
No Charge or Current Charge


@<TRIPOS>ATOM
      1 Cl          26.7150   -15.7100     5.7230 cl         1 SR5      -0.218000
      2 C22         26.0220   -16.3130     7.2230 ca         1 SR5       0.137000
      3 C21         26.0020   -15.4960     8.3600 ca         1 SR5      -0.118000
      4 C20         25.4510   -15.9770     9.5570 ca         1 SR5      -0.040000
      5 C23         25.4970   -17.6100     7.2790 ca         1 SR5      -0.098000
      6 C24         24.9420   -18.1140     8.4680 ca         1 SR5       0.270000
      7 C19         24.9140   -17.2850     9.6210 ca         1 SR5      -0.071000
      8 N3          24.4580   -19.3780     8.4770 nb         1 SR5      -0.674000
      9 C25         23.9380   -19.8680     9.6220 ca         1 SR5       0.359900
     10 C26         23.8730   -19.1250    10.8030 ca         1 SR5      -0.184000
     11 C18         24.3630   -17.8080    10.8180 ca         1 SR5       0.109800
     12 N2          24.3060   -17.0730    12.0070 na         1 SR5       0.189000
     13 N1          23.4250   -16.0220    12.1320 nc         1 SR5      -0.452800
     14 C8          24.9090   -17.4750    13.1850 cc         1 SR5      -0.066000
     15 C9          25.8880   -18.5340    13.4590 ca         1 SR5      -0.098000
     16 C15         25.6570   -19.4630    14.5000 ca         1 SR5       0.191100
     17 O4          24.4940   -19.3530    15.2410 os         1 SR5      -0.332600
     18 C16         24.1680   -20.2550    16.3120 c3         1 SR5       0.148400
     19 C14         26.5920   -20.4920    14.7450 ca         1 SR5      -0.237000
     20 C13         27.7490   -20.5990    13.9620 ca         1 SR5      -0.032000
     21 C12         27.9840   -19.6810    12.9310 ca         1 SR5      -0.237000
     22 C10         27.0600   -18.6460    12.6740 ca         1 SR5       0.191100
     23 O3          27.2850   -17.7090    11.6820 os         1 SR5      -0.332600
     24 C11         28.3920   -17.7950    10.7690 c3         1 SR5       0.148400
     25 C17         24.4500   -16.5760    14.1010 cd         1 SR5      -0.169000
     26 C7          23.5420   -15.7050    13.4240 cd         1 SR5       0.223500
     27 C           22.7760   -14.5620    14.0460 c          1 SR5       0.515600
     28 O           21.9980   -13.8320    13.4370 o          1 SR5      -0.597100
     29 N           23.0260   -14.3870    15.3980 ns         1 SR5      -0.455900
     30 C1          22.3790   -13.3730    16.2660 c3         1 SR5      -0.031300
     31 C6          23.2920   -13.0590    17.4930 c          1 SR5       0.707000
     32 O2          23.7030   -13.9950    18.1670 o          1 SR5      -0.724500
     33 O1          23.6520   -11.9030    17.6640 o          1 SR5      -0.724500
     34 C2          20.9510   -13.8260    16.6820 c3         1 SR5      -0.061400
     35 C3          20.1570   -12.8190    17.5620 c3         1 SR5      -0.056700
     36 C5          18.8180   -13.4350    18.0300 c3         1 SR5      -0.082600
     37 C4          19.9170   -11.4640    16.8540 c3         1 SR5      -0.082600
     38 H23         26.4150   -14.4910     8.3140 ha         1 SR5       0.138000
     39 H22         25.4550   -15.3260    10.4290 ha         1 SR5       0.159000
     40 H24         25.5220   -18.2360     6.3920 ha         1 SR5       0.139000
     41 H25         23.5620   -20.8900     9.5870 h4         1 SR5       0.017100
     42 H26         23.4460   -19.5700    11.6970 ha         1 SR5       0.140000
     43 H18         23.2060   -19.9800    16.7600 h1         1 SR5       0.043867
     44 H20         24.0890   -21.2860    15.9440 h1         1 SR5       0.043867
     45 H19         24.9320   -20.2180    17.0990 h1         1 SR5       0.043867
     46 H17         26.4370   -21.2200    15.5350 ha         1 SR5       0.118500
     47 H16         28.4660   -21.3950    14.1560 ha         1 SR5       0.107000
     48 H15         28.8920   -19.7860    12.3460 ha         1 SR5       0.118500
     49 H12         28.3550   -16.9660    10.0510 h1         1 SR5       0.043867
     50 H14         29.3470   -17.7370    11.3060 h1         1 SR5       0.043867
     51 H13         28.3580   -18.7350    10.2040 h1         1 SR5       0.043867
     52 H21         24.7260   -16.5450    15.1490 ha         1 SR5       0.151000
     53 H1          23.6840   -15.0230    15.8340 hn         1 SR5       0.302500
     54 H           22.2990   -12.4470    15.6850 h1         1 SR5       0.069700
     55 H2          20.3660   -14.0380    15.7790 hc         1 SR5       0.020700
     56 H3          21.0350   -14.7770    17.2230 hc         1 SR5       0.020700
     57 H4          20.7460   -12.6190    18.4670 hc         1 SR5       0.082700
     58 H9          18.2840   -12.7440    18.6940 hc         1 SR5       0.022700
     59 H8          18.1700   -13.6580    17.1740 hc         1 SR5       0.022700
     60 H10         18.9910   -14.3660    18.5830 hc         1 SR5       0.022700
     61 H5          19.3230   -10.7960    17.4890 hc         1 SR5       0.022700
     62 H7          20.8640   -10.9570    16.6360 hc         1 SR5       0.022700
     63 H6          19.3770   -11.6080    15.9100 hc         1 SR5       0.022700
@<TRIPOS>BOND
     1     1     2 1   
     2     2     3 ar  
     3     2     5 ar  
     4     3     4 ar  
     5     3    38 1   
     6     4     7 ar  
     7     4    39 1   
     8     5     6 ar  
     9     5    40 1   
    10     6     7 ar  
    11     6     8 ar  
    12     7    11 ar  
    13     8     9 ar  
    14     9    10 ar  
    15     9    41 1   
    16    10    11 ar  
    17    10    42 1   
    18    11    12 1   
    19    12    13 1   
    20    12    14 1   
    21    13    26 2   
    22    14    15 1   
    23    14    25 2   
    24    15    16 ar  
    25    15    22 ar  
    26    16    17 1   
    27    16    19 ar  
    28    17    18 1   
    29    18    43 1   
    30    18    44 1   
    31    18    45 1   
    32    19    20 ar  
    33    19    46 1   
    34    20    21 ar  
    35    20    47 1   
    36    21    22 ar  
    37    21    48 1   
    38    22    23 1   
    39    23    24 1   
    40    24    49 1   
    41    24    50 1   
    42    24    51 1   
    43    25    26 1   
    44    25    52 1   
    45    26    27 1   
    46    27    28 2   
    47    27    29 1   
    48    29    30 1   
    49    29    53 1   
    50    30    31 1   
    51    30    34 1   
    52    30    54 1   
    53    31    32 1   
    54    31    33 1   
    55    34    35 1   
    56    34    55 1   
    57    34    56 1   
    58    35    36 1   
    59    35    37 1   
    60    35    57 1   
    61    36    58 1   
    62    36    59 1   
    63    36    60 1   
    64    37    61 1   
    65    37    62 1   
    66    37    63 1   
@<TRIPOS>SUBSTRUCTURE
     1 SR5         1 TEMP              0 ****  ****    0 ROOT
