@<TRIPOS>MOLECULE
SR5
   63    66     1     0     0
SMALL
abcg2


@<TRIPOS>ATOM
      1 CL          27.5720   -14.9450     6.4380 cl         1 SR5      -0.218000
      2 C22         26.6940   -15.7790     7.6980 ca         1 SR5       0.137000
      3 C21         26.4070   -15.0840     8.8890 ca         1 SR5      -0.118000
      4 C20         25.7130   -15.7160     9.8870 ca         1 SR5      -0.040000
      5 C23         26.3130   -17.0790     7.5100 ca         1 SR5      -0.098000
      6 C24         25.6050   -17.7530     8.5330 ca         1 SR5       0.270000
      7 C19         25.2850   -17.0550     9.7350 ca         1 SR5      -0.071000
      8 N3          25.2790   -19.0590     8.3280 nb         1 SR5      -0.674000
      9 C25         24.6450   -19.6930     9.2880 ca         1 SR5       0.359900
     10 C26         24.2750   -19.1020    10.5120 ca         1 SR5      -0.184000
     11 C18         24.5920   -17.7880    10.7300 ca         1 SR5       0.109800
     12 N2          24.2610   -17.1910    11.9710 na         1 SR5       0.189000
     13 N1          23.5020   -16.0780    12.0140 nc         1 SR5      -0.452800
     14 C8          24.5940   -17.6510    13.2230 cc         1 SR5      -0.066000
     15 C9          25.4310   -18.8350    13.4490 ca         1 SR5      -0.098000
     16 C15         24.9620   -19.9070    14.2270 ca         1 SR5       0.191100
     17 O4          23.7180   -19.7650    14.7460 os         1 SR5      -0.332600
     18 C16         23.1660   -20.8410    15.5050 c3         1 SR5       0.148400
     19 C14         25.7470   -21.0470    14.4080 ca         1 SR5      -0.237000
     20 C13         26.9980   -21.1100    13.8110 ca         1 SR5      -0.032000
     21 C12         27.4940   -20.0630    13.0450 ca         1 SR5      -0.237000
     22 C10         26.7110   -18.9220    12.8760 ca         1 SR5       0.191100
     23 O3          27.1120   -17.8350    12.1730 os         1 SR5      -0.332600
     24 C11         28.2760   -17.9340    11.3530 c3         1 SR5       0.148400
     25 C17         24.0060   -16.7730    14.1070 cd         1 SR5      -0.169000
     26 C7          23.3400   -15.8160    13.3090 cd         1 SR5       0.223500
     27 C           22.5180   -14.6430    13.7220 c          1 SR5       0.515600
     28 O           21.8070   -14.0360    12.9170 o          1 SR5      -0.597100
     29 N           22.5950   -14.3290    15.0270 ns         1 SR5      -0.455900
     30 C1          21.8780   -13.2130    15.6260 c3         1 SR5      -0.031300
     31 C6          22.6710   -11.8800    15.5000 c          1 SR5       0.707000
     32 O2          23.9040   -11.9340    15.7300 o          1 SR5      -0.724500
     33 O1          22.0030   -10.8570    15.2080 o          1 SR5      -0.724500
     34 C2          21.6070   -13.5550    17.0960 c3         1 SR5      -0.061400
     35 C3          20.7810   -12.5300    17.8800 c3         1 SR5      -0.056700
     36 C5          20.7370   -12.9250    19.3570 c3         1 SR5      -0.082600
     37 C4          19.3650   -12.3820    17.3200 c3         1 SR5      -0.082600
     38 H23         26.7390   -14.0630     9.0090 ha         1 SR5       0.138000
     39 H22         25.4950   -15.1880    10.8040 ha         1 SR5       0.159000
     40 H24         26.5470   -17.6140     6.6010 ha         1 SR5       0.139000
     41 H25         24.3940   -20.7330     9.1070 h4         1 SR5       0.017100
     42 H26         23.7470   -19.6780    11.2580 ha         1 SR5       0.140000
     43 H18         22.1760   -20.5090    15.8080 h1         1 SR5       0.043867
     44 H20         23.0820   -21.7450    14.8980 h1         1 SR5       0.043867
     45 H19         23.7710   -21.0470    16.3900 h1         1 SR5       0.043867
     46 H17         25.3900   -21.8770    14.9980 ha         1 SR5       0.118500
     47 H16         27.6040   -21.9960    13.9480 ha         1 SR5       0.107000
     48 H15         28.4750   -20.1330    12.6000 ha         1 SR5       0.118500
     49 H12         28.3350   -16.9940    10.8120 h1         1 SR5       0.043867
     50 H14         29.1740   -18.0690    11.9590 h1         1 SR5       0.043867
     51 H13         28.1800   -18.7610    10.6450 h1         1 SR5       0.043867
     52 H21         24.0540   -16.8370    15.1800 ha         1 SR5       0.151000
     53 H1          23.3030   -14.7740    15.5890 hn         1 SR5       0.302500
     54 H           20.9450   -13.1060    15.0800 h1         1 SR5       0.069700
     55 H2          21.0950   -14.5230    17.1310 hc         1 SR5       0.020700
     56 H3          22.5740   -13.6890    17.5930 hc         1 SR5       0.020700
     57 H4          21.2800   -11.5590    17.8050 hc         1 SR5       0.082700
     58 H9          20.1790   -12.1910    19.9430 hc         1 SR5       0.022700
     59 H8          20.2460   -13.8950    19.4820 hc         1 SR5       0.022700
     60 H10         21.7420   -13.0030    19.7760 hc         1 SR5       0.022700
     61 H5          18.7890   -11.6660    17.9120 hc         1 SR5       0.022700
     62 H7          19.3710   -12.0310    16.2880 hc         1 SR5       0.022700
     63 H6          18.8400   -13.3410    17.3500 hc         1 SR5       0.022700
@<TRIPOS>BOND
     1     1     2 1   
     2     2     3 ar  
     3     2     5 ar  
     4     3     4 ar  
     5     3    38 1   
     6     4     7 ar  
     7     4    39 1   
     8     5     6 ar  
     9     5    40 1   
    10     6     7 ar  
    11     6     8 ar  
    12     7    11 ar  
    13     8     9 ar  
    14     9    10 ar  
    15     9    41 1   
    16    10    11 ar  
    17    10    42 1   
    18    11    12 1   
    19    12    13 1   
    20    12    14 1   
    21    13    26 2   
    22    14    15 1   
    23    14    25 2   
    24    15    16 ar  
    25    15    22 ar  
    26    16    17 1   
    27    16    19 ar  
    28    17    18 1   
    29    18    43 1   
    30    18    44 1   
    31    18    45 1   
    32    19    20 ar  
    33    19    46 1   
    34    20    21 ar  
    35    20    47 1   
    36    21    22 ar  
    37    21    48 1   
    38    22    23 1   
    39    23    24 1   
    40    24    49 1   
    41    24    50 1   
    42    24    51 1   
    43    25    26 1   
    44    25    52 1   
    45    26    27 1   
    46    27    28 2   
    47    27    29 1   
    48    29    30 1   
    49    29    53 1   
    50    30    31 1   
    51    30    34 1   
    52    30    54 1   
    53    31    32 1   
    54    31    33 1   
    55    34    35 1   
    56    34    55 1   
    57    34    56 1   
    58    35    36 1   
    59    35    37 1   
    60    35    57 1   
    61    36    58 1   
    62    36    59 1   
    63    36    60 1   
    64    37    61 1   
    65    37    62 1   
    66    37    63 1   
@<TRIPOS>SUBSTRUCTURE
     1 SR5         1 TEMP              0 ****  ****    0 ROOT
