@<TRIPOS>MOLECULE
SR6
  123   125     1     0     0
SMALL
abcg2


@<TRIPOS>ATOM
      1 N5         272.6530   250.3440   239.1570 n3         1 SR6      -0.704600
      2 C26        271.9380   250.1190   237.9100 c3         1 SR6       0.117500
      3 C15        272.2030   251.3300   237.0120 c          1 SR6       0.602100
      4 O6         272.0450   252.4730   237.4080 o          1 SR6      -0.569100
      5 C27        270.4060   249.9220   238.0820 c3         1 SR6      -0.056700
      6 C28        270.0600   248.4410   238.2420 c3         1 SR6      -0.096600
      7 N4         272.5870   251.0210   235.7560 ns         1 SR6      -0.514900
      8 C14        272.7290   252.0050   234.7080 c3         1 SR6       0.034700
      9 C13        271.5170   251.8890   233.7580 c          1 SR6       0.597100
     10 O5         270.7520   252.8410   233.7150 o          1 SR6      -0.584100
     11 C20        274.1450   252.1150   234.1130 c3         1 SR6      -0.056700
     12 C21        275.1900   252.0800   235.2230 c3         1 SR6      -0.089600
     13 C22        274.2610   253.4210   233.3320 c3         1 SR6      -0.089600
     14 N3         271.1820   250.7130   233.1490 n          1 SR6      -0.397800
     15 C11        272.5420   250.0960   231.1560 c3         1 SR6       0.155300
     16 C16        271.7470   248.2810   232.8000 c3         1 SR6      -0.063700
     17 C12        272.1570   249.7580   232.6170 c3         1 SR6       0.125700
     18 C10        271.4660   249.7750   230.1110 c3         1 SR6      -0.192400
     19 C5         271.9980   249.2960   228.7720 c          1 SR6       0.598100
     20 O3         272.8770   251.4620   231.1470 os         1 SR6      -0.461000
     21 O4         273.1390   248.8660   228.6420 o          1 SR6      -0.606100
     22 C17        271.6250   247.8840   234.2770 c3         1 SR6      -0.078400
     23 C18        272.9480   247.6030   234.9840 c3         1 SR6      -0.097100
     24 C19        272.7050   247.3350   232.0740 c3         1 SR6      -0.100100
     25 C23        269.8300   250.6880   232.6090 c3         1 SR6       0.077300
     26 C24        273.6420   251.8830   230.0450 c3         1 SR6       0.146900
     27 C3         269.0770   248.6960   226.8360 c5         1 SR6      -0.093400
     28 C7         272.9020   248.9110   224.3620 c3         1 SR6      -0.139700
     29 C8         273.7360   247.6980   224.7400 c          1 SR6       0.600100
     30 N1         271.1300   249.3210   227.7430 n          1 SR6      -0.410800
     31 C1         271.4810   248.7400   226.4460 c5         1 SR6       0.085700
     32 C2         270.1280   248.5450   225.7400 c5         1 SR6      -0.088400
     33 C4         269.7170   249.6690   227.8140 c5         1 SR6       0.103000
     34 C6         272.4490   249.6240   225.6470 c3         1 SR6       0.169300
     35 O1         271.8440   250.8450   225.2940 os         1 SR6      -0.463000
     36 O2         274.7910   247.8110   225.3420 o          1 SR6      -0.577100
     37 N6         275.0980   243.5550   223.2460 nc         1 SR6      -0.644000
     38 N2         273.2440   246.5040   224.3410 ns         1 SR6      -0.516900
     39 C29        273.9000   245.2490   224.6060 c3         1 SR6       0.079400
     40 C30        272.9230   244.2170   225.1840 c3         1 SR6      -0.039100
     41 C31        272.3270   244.6700   226.4870 ca         1 SR6      -0.082300
     42 C32        274.5660   244.7280   223.3610 cd         1 SR6       0.407700
     43 C33        270.9670   244.9450   226.5950 ca         1 SR6      -0.104500
     44 C34        270.4170   245.3490   227.8050 ca         1 SR6      -0.104000
     45 C35        271.2240   245.5030   228.9220 ca         1 SR6      -0.114000
     46 C36        272.5850   245.2390   228.8230 ca         1 SR6      -0.104000
     47 C37        273.1280   244.8210   227.6180 ca         1 SR6      -0.104500
     48 S1         274.7000   245.7140   221.9500 ss         1 SR6      -0.015400
     49 C38        275.5360   244.4400   221.1660 cd         1 SR6      -0.273000
     50 C39        275.6490   243.3830   222.0090 cc         1 SR6       0.278900
     51 C40        269.5690   250.4700   236.9230 c3         1 SR6      -0.096600
     52 C41        272.3380   249.4400   240.2420 c3         1 SR6       0.153600
     53 C42        274.0860   250.3620   238.9380 c3         1 SR6       0.153600
     54 H2         272.3220   249.2150   237.4010 h1         1 SR6       0.017700
     55 H3         270.1080   250.4680   238.9820 hc         1 SR6       0.074700
     56 H4         270.6320   247.9420   239.0220 hc         1 SR6       0.037867
     57 H5         269.0020   248.3180   238.4780 hc         1 SR6       0.037867
     58 H6         270.2520   247.9090   237.3070 hc         1 SR6       0.037867
     59 H7         272.7400   250.0510   235.5400 hn         1 SR6       0.312500
     60 H8         272.5540   252.9630   235.1990 h1         1 SR6       0.109700
     61 H9         274.3490   251.2890   233.4310 hc         1 SR6       0.048700
     62 H10        275.2080   251.1250   235.7480 hc         1 SR6       0.038867
     63 H11        276.1840   252.2450   234.8040 hc         1 SR6       0.038867
     64 H12        275.0080   252.8650   235.9610 hc         1 SR6       0.038867
     65 H13        275.2250   253.4780   232.8250 hc         1 SR6       0.038867
     66 H14        273.4860   253.5270   232.5750 hc         1 SR6       0.038867
     67 H15        274.1890   254.2780   234.0060 hc         1 SR6       0.038867
     68 H16        273.4370   249.5060   230.9260 h1         1 SR6       0.068700
     69 H17        270.7590   248.1240   232.3620 hc         1 SR6       0.046700
     70 H18        273.0790   249.8870   233.1850 h1         1 SR6       0.067700
     71 H19        270.8220   250.6460   229.9810 hc         1 SR6       0.070200
     72 H20        270.8090   248.9780   230.4700 hc         1 SR6       0.070200
     73 H21        271.0610   248.6510   234.8140 hc         1 SR6       0.047700
     74 H22        271.0110   246.9820   234.3340 hc         1 SR6       0.047700
     75 H23        272.7970   247.4960   236.0590 hc         1 SR6       0.034033
     76 H24        273.4010   246.6760   234.6330 hc         1 SR6       0.034033
     77 H25        273.6960   248.3850   234.8310 hc         1 SR6       0.034033
     78 H26        272.4640   246.3010   232.3230 hc         1 SR6       0.042700
     79 H27        272.6420   247.4240   230.9910 hc         1 SR6       0.042700
     80 H28        273.7450   247.5090   232.3560 hc         1 SR6       0.042700
     81 H29        269.6870   251.3870   231.7840 h1         1 SR6       0.038033
     82 H30        269.5930   249.6910   232.2530 h1         1 SR6       0.038033
     83 H31        269.1100   250.9350   233.3870 h1         1 SR6       0.038033
     84 H32        273.9520   252.9090   230.2380 h1         1 SR6       0.033700
     85 H33        274.5390   251.2700   229.9090 h1         1 SR6       0.033700
     86 H34        273.0750   251.8720   229.1080 h1         1 SR6       0.033700
     87 H35        268.1220   249.0600   226.4570 hc         1 SR6       0.052200
     88 H36        268.8960   247.7430   227.3350 hc         1 SR6       0.052200
     89 H40        272.0220   248.5920   223.7960 hc         1 SR6       0.056700
     90 H41        271.7910   252.8410   225.6150 h1         1 SR6       0.030700
     91 H42        271.7110   251.8870   227.1020 h1         1 SR6       0.030700
     92 H43        273.2490   252.0540   226.2380 h1         1 SR6       0.030700
     93 H44        271.9540   247.7690   226.6250 h1         1 SR6       0.081700
     94 H45        270.0790   247.5760   225.2450 hc         1 SR6       0.056700
     95 H46        269.9790   249.3120   224.9800 hc         1 SR6       0.056700
     96 H47        269.5590   250.7080   227.5070 h1         1 SR6       0.049700
     97 H48        269.3220   249.5550   228.8210 h1         1 SR6       0.049700
     98 H49        273.3420   249.8160   226.2520 h1         1 SR6       0.083700
     99 H50        272.3400   246.4790   223.8920 hn         1 SR6       0.315500
    100 H51        274.6820   245.4420   225.3430 h1         1 SR6       0.110700
    101 H52        273.4690   243.2820   225.3220 hc         1 SR6       0.066700
    102 H53        272.1350   244.0170   224.4540 hc         1 SR6       0.066700
    103 H54        270.3300   244.8340   225.7250 ha         1 SR6       0.112500
    104 H55        269.3540   245.5440   227.8720 ha         1 SR6       0.111500
    105 H56        270.7980   245.8240   229.8640 ha         1 SR6       0.108000
    106 H57        273.2240   245.3520   229.6900 ha         1 SR6       0.111500
    107 H58        274.1890   244.6050   227.5580 ha         1 SR6       0.112500
    108 H59        275.8870   244.5270   220.1500 h4         1 SR6       0.162000
    109 H60        276.1320   242.4470   221.7630 h4         1 SR6       0.042100
    110 H61        268.5170   250.2440   237.0990 hc         1 SR6       0.037867
    111 H62        269.6520   251.5500   236.8070 hc         1 SR6       0.037867
    112 H63        269.8440   250.0040   235.9750 hc         1 SR6       0.037867
    113 H64        272.9080   249.7410   241.1220 h1         1 SR6       0.031700
    114 H65        271.2860   249.4900   240.5150 h1         1 SR6       0.031700
    115 H66        272.5900   248.3880   240.0340 h1         1 SR6       0.031700
    116 H67        274.5960   250.6110   239.8690 h1         1 SR6       0.031700
    117 H68        274.4810   249.3940   238.5890 h1         1 SR6       0.031700
    118 H69        274.3690   251.1180   238.2050 h1         1 SR6       0.031700
    119 C9         273.7440   249.8220   223.4690 c3         1 SR6      -0.078100
    120 C25        272.1670   251.9450   226.1090 c3         1 SR6       0.152900
    121 H37        273.1450   250.6440   223.0840 hc         1 SR6       0.047033
    122 H38        274.5890   250.2410   224.0160 hc         1 SR6       0.047033
    123 H39        274.1340   249.2700   222.6130 hc         1 SR6       0.047033
@<TRIPOS>BOND
     1     1     2 1   
     2     1    52 1   
     3     1    53 1   
     4     2     3 1   
     5     2     5 1   
     6     2    54 1   
     7     3     4 2   
     8     3     7 1   
     9     5     6 1   
    10     5    51 1   
    11     5    55 1   
    12     6    56 1   
    13     6    57 1   
    14     6    58 1   
    15     7     8 1   
    16     7    59 1   
    17     8     9 1   
    18     8    11 1   
    19     8    60 1   
    20     9    10 2   
    21     9    14 1   
    22    11    12 1   
    23    11    13 1   
    24    11    61 1   
    25    12    62 1   
    26    12    63 1   
    27    12    64 1   
    28    13    65 1   
    29    13    66 1   
    30    13    67 1   
    31    14    17 1   
    32    14    25 1   
    33    15    17 1   
    34    15    18 1   
    35    15    20 1   
    36    15    68 1   
    37    16    17 1   
    38    16    22 1   
    39    16    24 1   
    40    16    69 1   
    41    17    70 1   
    42    18    19 1   
    43    18    71 1   
    44    18    72 1   
    45    19    21 2   
    46    19    30 1   
    47    20    26 1   
    48    22    23 1   
    49    22    73 1   
    50    22    74 1   
    51    23    75 1   
    52    23    76 1   
    53    23    77 1   
    54    24    78 1   
    55    24    79 1   
    56    24    80 1   
    57    25    81 1   
    58    25    82 1   
    59    25    83 1   
    60    26    84 1   
    61    26    85 1   
    62    26    86 1   
    63    27    32 1   
    64    27    33 1   
    65    27    87 1   
    66    27    88 1   
    67    28    29 1   
    68    28    34 1   
    69    28    89 1   
    70    28   119 1   
    71    29    36 2   
    72    29    38 1   
    73    30    31 1   
    74    30    33 1   
    75    31    32 1   
    76    31    34 1   
    77    31    93 1   
    78    32    94 1   
    79    32    95 1   
    80    33    96 1   
    81    33    97 1   
    82    34    35 1   
    83    34    98 1   
    84    35   120 1   
    85    37    42 2   
    86    37    50 1   
    87    38    39 1   
    88    38    99 1   
    89    39    40 1   
    90    39    42 1   
    91    39   100 1   
    92    40    41 1   
    93    40   101 1   
    94    40   102 1   
    95    41    43 ar  
    96    41    47 ar  
    97    42    48 1   
    98    43    44 ar  
    99    43   103 1   
   100    44    45 ar  
   101    44   104 1   
   102    45    46 ar  
   103    45   105 1   
   104    46    47 ar  
   105    46   106 1   
   106    47   107 1   
   107    48    49 1   
   108    49    50 2   
   109    49   108 1   
   110    50   109 1   
   111    51   110 1   
   112    51   111 1   
   113    51   112 1   
   114    52   113 1   
   115    52   114 1   
   116    52   115 1   
   117    53   116 1   
   118    53   117 1   
   119    53   118 1   
   120    90   120 1   
   121    91   120 1   
   122    92   120 1   
   123   119   121 1   
   124   119   122 1   
   125   119   123 1   
@<TRIPOS>SUBSTRUCTURE
     1 SR6         1 TEMP              0 ****  ****    0 ROOT
