@<TRIPOS>MOLECULE
SR6
  123   125     1     0     0
SMALL
No Charge or Current Charge


@<TRIPOS>ATOM
      1 N5         272.8520   250.1210   239.2210 n3         1 SR6      -0.704600
      2 C26        271.8820   250.1070   238.0590 c3         1 SR6       0.117500
      3 C15        271.8940   251.4030   237.1670 c          1 SR6       0.602100
      4 O6         271.7750   252.5360   237.6210 o          1 SR6      -0.569100
      5 C27        270.3920   249.6810   238.4680 c3         1 SR6      -0.056700
      6 C28        270.1500   248.1690   238.2120 c3         1 SR6      -0.096600
      7 N4         272.0930   251.1890   235.7920 ns         1 SR6      -0.514900
      8 C14        272.1100   252.2520   234.7230 c3         1 SR6       0.034700
      9 C13        271.0880   251.9120   233.5900 c          1 SR6       0.597100
     10 O5         270.2780   252.7670   233.2440 o          1 SR6      -0.584100
     11 C20        273.5450   252.6570   234.2540 c3         1 SR6      -0.056700
     12 C21        274.5650   252.7340   235.4170 c3         1 SR6      -0.089600
     13 C22        273.5260   253.9920   233.4710 c3         1 SR6      -0.089600
     14 N3         270.9310   250.5690   233.1400 n          1 SR6      -0.397800
     15 C11        272.5980   250.1860   231.2240 c3         1 SR6       0.155300
     16 C16        271.9830   248.2100   232.8380 c3         1 SR6      -0.063700
     17 C12        272.1320   249.7760   232.6760 c3         1 SR6       0.125700
     18 C10        271.6070   249.8440   230.0690 c3         1 SR6      -0.192400
     19 C5         272.2380   249.3610   228.7530 c          1 SR6       0.598100
     20 O3         272.8220   251.6120   231.2180 os         1 SR6      -0.461000
     21 O4         273.3980   248.9770   228.7110 o          1 SR6      -0.606100
     22 C17        271.6920   247.7640   234.3020 c3         1 SR6      -0.078400
     23 C18        272.9140   247.7660   235.2520 c3         1 SR6      -0.097100
     24 C19        273.1760   247.4040   232.2530 c3         1 SR6      -0.100100
     25 C23        269.5920   250.1890   232.6160 c3         1 SR6       0.077300
     26 C24        273.5150   252.1520   230.0780 c3         1 SR6       0.146900
     27 C3         269.5100   248.7480   226.3830 c5         1 SR6      -0.093400
     28 C7         273.7350   248.8040   224.3820 c3         1 SR6      -0.139700
     29 C8         274.1130   247.3570   224.7350 c          1 SR6       0.600100
     30 N1         271.4440   249.3860   227.5830 n          1 SR6      -0.410800
     31 C1         271.9280   248.8580   226.2750 c5         1 SR6       0.085700
     32 C2         270.6540   249.0130   225.3840 c5         1 SR6      -0.088400
     33 C4         269.9710   249.5590   227.6170 c5         1 SR6       0.103000
     34 C6         273.2040   249.5410   225.6440 c3         1 SR6       0.169300
     35 O1         272.9230   250.9030   225.2280 os         1 SR6      -0.463000
     36 O2         275.0290   247.0850   225.4950 o          1 SR6      -0.577100
     37 N6         274.8280   243.4140   222.7760 nc         1 SR6      -0.644000
     38 N2         273.3550   246.3860   224.1170 ns         1 SR6      -0.516900
     39 C29        273.5480   244.9280   224.2830 c3         1 SR6       0.079400
     40 C30        272.3720   244.2840   225.0620 c3         1 SR6      -0.039100
     41 C31        272.0950   244.8780   226.4450 ca         1 SR6      -0.082300
     42 C32        273.7940   244.2270   222.9590 cd         1 SR6       0.407700
     43 C33        270.7690   245.1590   226.8340 ca         1 SR6      -0.104500
     44 C34        270.4930   245.6670   228.1150 ca         1 SR6      -0.104000
     45 C35        271.5390   245.9040   229.0190 ca         1 SR6      -0.114000
     46 C36        272.8620   245.6200   228.6440 ca         1 SR6      -0.104000
     47 C37        273.1390   245.1030   227.3670 ca         1 SR6      -0.104500
     48 S1         272.7180   244.4390   221.5800 ss         1 SR6      -0.015400
     49 C38        273.7700   243.3400   220.7060 cd         1 SR6      -0.273000
     50 C39        274.8090   242.9160   221.4970 cc         1 SR6       0.278900
     51 C40        269.2770   250.4770   237.7360 c3         1 SR6      -0.096600
     52 C41        272.9130   248.8570   239.9950 c3         1 SR6       0.153600
     53 C42        274.2130   250.5690   238.8330 c3         1 SR6       0.153600
     54 H2         272.2380   249.3260   237.3800 h1         1 SR6       0.017700
     55 H3         270.1940   249.8510   239.5490 hc         1 SR6       0.074700
     56 H4         270.8870   247.5430   238.7250 hc         1 SR6       0.037867
     57 H5         269.1570   247.8690   238.5700 hc         1 SR6       0.037867
     58 H6         270.2040   247.9420   237.1410 hc         1 SR6       0.037867
     59 H7         272.1710   250.2230   235.5000 hn         1 SR6       0.312500
     60 H8         271.6870   253.1400   235.2080 h1         1 SR6       0.109700
     61 H9         273.9260   251.8920   233.5710 hc         1 SR6       0.048700
     62 H10        274.7070   251.7520   235.8840 hc         1 SR6       0.038867
     63 H11        275.5440   253.0660   235.0520 hc         1 SR6       0.038867
     64 H12        274.2300   253.4400   236.1860 hc         1 SR6       0.038867
     65 H13        274.5230   254.2270   233.0810 hc         1 SR6       0.038867
     66 H14        272.8370   253.9450   232.6200 hc         1 SR6       0.038867
     67 H15        273.2090   254.8190   234.1180 hc         1 SR6       0.038867
     68 H16        273.5560   249.6820   231.0460 h1         1 SR6       0.068700
     69 H17        271.1190   247.8830   232.2520 hc         1 SR6       0.046700
     70 H18        272.9640   250.0360   233.3370 h1         1 SR6       0.067700
     71 H19        270.9250   250.6760   229.8640 hc         1 SR6       0.070200
     72 H20        270.9070   249.0560   230.3590 hc         1 SR6       0.070200
     73 H21        270.9010   248.3900   234.7310 hc         1 SR6       0.047700
     74 H22        271.2860   246.7450   234.2810 hc         1 SR6       0.047700
     75 H23        272.6080   247.4700   236.2610 hc         1 SR6       0.034033
     76 H24        273.6700   247.0420   234.9260 hc         1 SR6       0.034033
     77 H25        273.3880   248.7520   235.3020 hc         1 SR6       0.034033
     78 H26        273.0820   246.3380   232.4960 hc         1 SR6       0.042700
     79 H27        273.2120   247.4790   231.1610 hc         1 SR6       0.042700
     80 H28        274.1330   247.7640   232.6500 hc         1 SR6       0.042700
     81 H29        269.4390   250.6200   231.6190 h1         1 SR6       0.038033
     82 H30        269.4610   249.1040   232.5700 h1         1 SR6       0.038033
     83 H31        268.8160   250.5830   233.2850 h1         1 SR6       0.038033
     84 H32        273.7380   253.2140   230.2390 h1         1 SR6       0.033700
     85 H33        274.4640   251.6260   229.9110 h1         1 SR6       0.033700
     86 H34        272.9040   252.0740   229.1720 h1         1 SR6       0.033700
     87 H35        268.5340   249.0780   226.0080 hc         1 SR6       0.052200
     88 H36        269.4250   247.6820   226.6130 hc         1 SR6       0.052200
     89 H40        272.9220   248.7760   223.6470 hc         1 SR6       0.056700
     90 H41        272.7760   252.8960   225.8290 h1         1 SR6       0.030700
     91 H42        271.8570   251.7630   226.8260 h1         1 SR6       0.030700
     92 H43        273.6360   251.8370   226.9650 h1         1 SR6       0.030700
     93 H44        272.1510   247.7920   226.4130 h1         1 SR6       0.081700
     94 H45        270.6430   248.3090   224.5440 hc         1 SR6       0.056700
     95 H46        270.5610   250.0210   224.9620 hc         1 SR6       0.056700
     96 H47        269.7090   250.6210   227.5200 h1         1 SR6       0.049700
     97 H48        269.5110   249.1680   228.5340 h1         1 SR6       0.049700
     98 H49        274.0140   249.5330   226.3850 h1         1 SR6       0.083700
     99 H50        272.6170   246.7080   223.5020 hn         1 SR6       0.315500
    100 H51        274.4580   244.7670   224.8750 h1         1 SR6       0.110700
    101 H52        272.5770   243.2120   225.1730 hc         1 SR6       0.066700
    102 H53        271.4700   244.3510   224.4410 hc         1 SR6       0.066700
    103 H54        269.9470   244.9790   226.1450 ha         1 SR6       0.112500
    104 H55        269.4670   245.8780   228.4070 ha         1 SR6       0.111500
    105 H56        271.3240   246.2980   230.0090 ha         1 SR6       0.108000
    106 H57        273.6760   245.7960   229.3440 ha         1 SR6       0.111500
    107 H58        274.1680   244.8740   227.1040 ha         1 SR6       0.112500
    108 H59        273.5660   243.0720   219.6770 h4         1 SR6       0.162000
    109 H60        275.5960   242.2350   221.2000 h4         1 SR6       0.042100
    110 H61        268.2860   250.1020   238.0180 hc         1 SR6       0.037867
    111 H62        269.3040   251.5400   238.0050 hc         1 SR6       0.037867
    112 H63        269.3730   250.3850   236.6480 hc         1 SR6       0.037867
    113 H64        273.6480   248.9360   240.8080 h1         1 SR6       0.031700
    114 H65        271.9460   248.6250   240.4590 h1         1 SR6       0.031700
    115 H66        273.2060   248.0170   239.3510 h1         1 SR6       0.031700
    116 H67        274.8810   250.5840   239.7050 h1         1 SR6       0.031700
    117 H68        274.6460   249.8940   238.0820 h1         1 SR6       0.031700
    118 H69        274.1980   251.5840   238.4180 h1         1 SR6       0.031700
    119 C9         274.9380   249.5180   223.7090 c3         1 SR6      -0.078100
    120 C25        272.7910   251.8900   226.2670 c3         1 SR6       0.152900
    121 H37        274.6550   250.5090   223.3370 hc         1 SR6       0.047033
    122 H38        275.7670   249.6410   224.4170 hc         1 SR6       0.047033
    123 H39        275.3020   248.9340   222.8550 hc         1 SR6       0.047033
@<TRIPOS>BOND
     1     1     2 1   
     2     1    52 1   
     3     1    53 1   
     4     2     3 1   
     5     2     5 1   
     6     2    54 1   
     7     3     4 2   
     8     3     7 1   
     9     5     6 1   
    10     5    51 1   
    11     5    55 1   
    12     6    56 1   
    13     6    57 1   
    14     6    58 1   
    15     7     8 1   
    16     7    59 1   
    17     8     9 1   
    18     8    11 1   
    19     8    60 1   
    20     9    10 2   
    21     9    14 1   
    22    11    12 1   
    23    11    13 1   
    24    11    61 1   
    25    12    62 1   
    26    12    63 1   
    27    12    64 1   
    28    13    65 1   
    29    13    66 1   
    30    13    67 1   
    31    14    17 1   
    32    14    25 1   
    33    15    17 1   
    34    15    18 1   
    35    15    20 1   
    36    15    68 1   
    37    16    17 1   
    38    16    22 1   
    39    16    24 1   
    40    16    69 1   
    41    17    70 1   
    42    18    19 1   
    43    18    71 1   
    44    18    72 1   
    45    19    21 2   
    46    19    30 1   
    47    20    26 1   
    48    22    23 1   
    49    22    73 1   
    50    22    74 1   
    51    23    75 1   
    52    23    76 1   
    53    23    77 1   
    54    24    78 1   
    55    24    79 1   
    56    24    80 1   
    57    25    81 1   
    58    25    82 1   
    59    25    83 1   
    60    26    84 1   
    61    26    85 1   
    62    26    86 1   
    63    27    32 1   
    64    27    33 1   
    65    27    87 1   
    66    27    88 1   
    67    28    29 1   
    68    28    34 1   
    69    28    89 1   
    70    28   119 1   
    71    29    36 2   
    72    29    38 1   
    73    30    31 1   
    74    30    33 1   
    75    31    32 1   
    76    31    34 1   
    77    31    93 1   
    78    32    94 1   
    79    32    95 1   
    80    33    96 1   
    81    33    97 1   
    82    34    35 1   
    83    34    98 1   
    84    35   120 1   
    85    37    42 2   
    86    37    50 1   
    87    38    39 1   
    88    38    99 1   
    89    39    40 1   
    90    39    42 1   
    91    39   100 1   
    92    40    41 1   
    93    40   101 1   
    94    40   102 1   
    95    41    43 ar  
    96    41    47 ar  
    97    42    48 1   
    98    43    44 ar  
    99    43   103 1   
   100    44    45 ar  
   101    44   104 1   
   102    45    46 ar  
   103    45   105 1   
   104    46    47 ar  
   105    46   106 1   
   106    47   107 1   
   107    48    49 1   
   108    49    50 2   
   109    49   108 1   
   110    50   109 1   
   111    51   110 1   
   112    51   111 1   
   113    51   112 1   
   114    52   113 1   
   115    52   114 1   
   116    52   115 1   
   117    53   116 1   
   118    53   117 1   
   119    53   118 1   
   120    90   120 1   
   121    91   120 1   
   122    92   120 1   
   123   119   121 1   
   124   119   122 1   
   125   119   123 1   
@<TRIPOS>SUBSTRUCTURE
     1 SR6         1 TEMP              0 ****  ****    0 ROOT
