@<TRIPOS>MOLECULE
SR7
   57    62     1     0     0
SMALL
bcc


@<TRIPOS>ATOM
      1 CAA         -1.4320    -4.4920    -0.1940 ca         1 SR7      -0.149000
      2 CAB         -1.0850    -3.1410    -0.1490 ca         1 SR7       0.101600
      3 CAC          0.2780    -2.7770    -0.1180 ca         1 SR7      -0.156500
      4 CAD          1.2390    -3.7880    -0.1460 ca         1 SR7      -0.101000
      5 CAE          0.8890    -5.1240    -0.2180 ca         1 SR7      -0.155000
      6 CAF         -0.4540    -5.4720    -0.2360 ca         1 SR7      -0.099000
      7 CAG         -4.1760     1.2500     0.2560 ca         1 SR7       0.286300
      8 CAH         -5.4550     1.3810    -0.3390 ca         1 SR7       0.301300
      9 NAI         -6.0090     0.3540    -1.0230 nb         1 SR7      -0.633000
     10 CAJ         -5.3240    -0.7500    -1.1110 ca         1 SR7       0.345900
     11 CAK         -4.0410    -0.8810    -0.5190 ca         1 SR7       0.251500
     12 NAL         -3.4910     0.0950     0.1440 nb         1 SR7      -0.616000
     13 CAM         -4.3150     3.5030     1.0740 ca         1 SR7      -0.124000
     14 CAN         -5.5900     3.6370     0.4790 ca         1 SR7      -0.113000
     15 CAO         -6.1530     2.6000    -0.2140 ca         1 SR7      -0.162300
     16 CAP         -3.6170     2.3330     0.9670 ca         1 SR7      -0.152300
     17 CAQ          6.3770     1.5650    -0.7690 c6         1 SR7       0.121800
     18 CAR          7.5130     1.6190     0.2420 c6         1 SR7       0.148300
     19 NAS          7.4890     0.5240     1.1970 n7         1 SR7      -0.785200
     20 CAT          6.1780     0.4230     1.8130 c6         1 SR7       0.148300
     21 CAU          5.0320     0.3680     0.8110 c6         1 SR7       0.121800
     22 NAV          5.0900     1.5040    -0.0940 n3         1 SR7      -0.707600
     23 NAW          1.8630     0.4630    -0.2590 na         1 SR7      -0.120900
     24 CAX          0.6710     0.6960     0.3490 cc         1 SR7       0.446900
     25 NAY         -0.0420    -0.3860     0.4840 nd         1 SR7      -0.665000
     26 CAZ          0.7250    -1.3830    -0.0710 cd         1 SR7       0.393800
     27 CBA          1.9140    -0.8770    -0.5400 cc         1 SR7      -0.243600
     28 SBB          0.4890     2.3660     0.7410 ss         1 SR7      -0.111300
     29 CBC          2.0580     2.6810     0.0490 cc         1 SR7      -0.091100
     30 CBD          2.6640     1.5840    -0.4370 cd         1 SR7      -0.040600
     31 NBE         -2.0570    -2.1340    -0.1170 ns         1 SR7      -0.456100
     32 CBF         -3.2880    -2.1720    -0.6610 c          1 SR7       0.582600
     33 OBG         -3.7970    -3.1210    -1.2330 o          1 SR7      -0.591100
     34 CBH          4.0160     1.4930    -1.0680 c3         1 SR7       0.231100
     35 HAA         -2.4690    -4.7860    -0.1890 ha         1 SR7       0.159000
     36 HAD          2.2870    -3.5180    -0.0970 ha         1 SR7       0.124000
     37 HAE          1.6570    -5.8850    -0.2410 ha         1 SR7       0.132000
     38 HAF         -0.7480    -6.5130    -0.2690 ha         1 SR7       0.134000
     39 HAM         -3.8930     4.3370     1.6180 ha         1 SR7       0.137000
     40 HAN         -6.1220     4.5740     0.5750 ha         1 SR7       0.138000
     41 HAO         -7.1290     2.6940    -0.6720 ha         1 SR7       0.154000
     42 HAP         -2.6410     2.2100     1.4200 ha         1 SR7       0.152000
     43 HAQ          6.4020     2.4580    -1.4000 h1         1 SR7       0.037450
     44 HAQA         6.5240     0.6970    -1.4370 h1         1 SR7       0.037450
     45 HAR          8.4690     1.6190    -0.2840 h1         1 SR7       0.062450
     46 HARA         7.4520     2.5600     0.7980 h1         1 SR7       0.062450
     47 HNAS         7.6950    -0.3430     0.7130 hn         1 SR7       0.345800
     48 HAT          6.1450    -0.4630     2.4500 h1         1 SR7       0.062450
     49 HATA         6.0380     1.2920     2.4630 h1         1 SR7       0.062450
     50 HAU          5.0700    -0.5900     0.2600 h1         1 SR7       0.037450
     51 HAUA         4.0880     0.3840     1.3620 h1         1 SR7       0.037450
     52 HBA          2.7440    -1.3350    -1.0490 h4         1 SR7       0.185000
     53 HBC          2.4500     3.6850     0.0420 h4         1 SR7       0.189000
     54 HNBE        -1.7490    -1.2300     0.2470 hn         1 SR7       0.385500
     55 HBH          4.1450     2.3550    -1.7260 h1         1 SR7       0.050700
     56 HBHA         4.0520     0.6030    -1.7170 h1         1 SR7       0.050700
     57 HAJ         -5.7630    -1.5750    -1.6580 h4         1 SR7       0.054100
@<TRIPOS>BOND
     1     1     2 ar  
     2     1     6 ar  
     3     1    35 1   
     4     2     3 ar  
     5     2    31 1   
     6     3     4 ar  
     7     3    26 1   
     8     4     5 ar  
     9     4    36 1   
    10     5     6 ar  
    11     5    37 1   
    12     6    38 1   
    13     7     8 ar  
    14     7    12 ar  
    15     7    16 ar  
    16     8     9 ar  
    17     8    15 ar  
    18     9    10 ar  
    19    10    11 ar  
    20    10    57 1   
    21    11    12 ar  
    22    11    32 1   
    23    13    14 ar  
    24    13    16 ar  
    25    13    39 1   
    26    14    15 ar  
    27    14    40 1   
    28    15    41 1   
    29    16    42 1   
    30    17    18 1   
    31    17    22 1   
    32    17    43 1   
    33    17    44 1   
    34    18    19 1   
    35    18    45 1   
    36    18    46 1   
    37    19    20 1   
    38    19    47 1   
    39    20    21 1   
    40    20    48 1   
    41    20    49 1   
    42    21    22 1   
    43    21    50 1   
    44    21    51 1   
    45    22    34 1   
    46    23    24 1   
    47    23    27 1   
    48    23    30 1   
    49    24    25 2   
    50    24    28 1   
    51    25    26 1   
    52    26    27 2   
    53    27    52 1   
    54    28    29 1   
    55    29    30 2   
    56    29    53 1   
    57    30    34 1   
    58    31    32 1   
    59    31    54 1   
    60    32    33 2   
    61    34    55 1   
    62    34    56 1   
@<TRIPOS>SUBSTRUCTURE
     1 SR7         1 TEMP              0 ****  ****    0 ROOT
