@<TRIPOS>MOLECULE
SR7
   57    62     1     0     0
SMALL
No Charge or Current Charge


@<TRIPOS>ATOM
      1 CAA         -1.3260    -4.5360    -0.3660 ca         1 SR7      -0.131000
      2 CAB         -1.0290    -3.1560    -0.4720 ca         1 SR7       0.009000
      3 CAC          0.3280    -2.7460    -0.6760 ca         1 SR7      -0.156500
      4 CAD          1.3210    -3.7510    -0.7900 ca         1 SR7      -0.083000
      5 CAE          1.0010    -5.1120    -0.6970 ca         1 SR7      -0.137000
      6 CAF         -0.3220    -5.5060    -0.4810 ca         1 SR7      -0.081000
      7 CAG         -4.1650     1.2990     0.4330 ca         1 SR7       0.221000
      8 CAH         -5.5940     1.3320     0.3040 ca         1 SR7       0.236000
      9 NAI         -6.3010     0.2260    -0.0530 nb         1 SR7      -0.633000
     10 CAJ         -5.5820    -0.9080    -0.2810 ca         1 SR7       0.345900
     11 CAK         -4.1710    -0.9520    -0.1610 ca         1 SR7       0.251500
     12 NAL         -3.4590     0.1620     0.2030 nb         1 SR7      -0.616000
     13 CAM         -4.1810     3.6670     1.0510 ca         1 SR7      -0.106000
     14 CAN         -5.5770     3.7000     0.9240 ca         1 SR7      -0.095000
     15 CAO         -6.2750     2.5380     0.5530 ca         1 SR7      -0.079000
     16 CAP         -3.4830     2.4720     0.8060 ca         1 SR7      -0.069000
     17 CAQ          6.6370     1.4040    -0.3600 c6         1 SR7       0.121800
     18 CAR          7.4780     1.6260     0.9390 c6         1 SR7       0.148300
     19 NAS          7.1130     0.6620     2.0170 n7         1 SR7      -0.840400
     20 CAT          5.6460     0.6950     2.2840 c6         1 SR7       0.148300
     21 CAU          4.8020     0.4760     0.9870 c6         1 SR7       0.121800
     22 NAV          5.1670     1.4420    -0.0970 n3         1 SR7      -0.707600
     23 NAW          1.9560     0.4800    -0.9950 na         1 SR7      -0.019500
     24 CAX          0.6870     0.7970    -0.8010 cc         1 SR7       0.446900
     25 NAY         -0.1120    -0.2360    -0.6510 nd         1 SR7      -0.665000
     26 CAZ          0.7620    -1.3210    -0.7770 cd         1 SR7       0.328500
     27 CBA          2.0700    -0.8850    -0.9880 cc         1 SR7      -0.211000
     28 SBB          0.4290     2.5090    -0.7450 ss         1 SR7       0.033600
     29 CBC          2.1920     2.7020    -1.0110 cc         1 SR7      -0.218000
     30 CBD          2.8850     1.4930    -1.1240 cd         1 SR7      -0.091300
     31 NBE         -2.0650    -2.1860    -0.3460 ns         1 SR7      -0.130000
     32 CBF         -3.4510    -2.2610    -0.4360 c          1 SR7       0.515600
     33 OBG         -4.0560    -3.2910    -0.7290 o          1 SR7      -0.591100
     34 CBH          4.3660     1.2720    -1.3340 c3         1 SR7       0.231100
     35 HAA         -2.3370    -4.8810    -0.1760 ha         1 SR7       0.141000
     36 HAD          2.3630    -3.4900    -0.9500 ha         1 SR7       0.106000
     37 HAE          1.7840    -5.8630    -0.7870 ha         1 SR7       0.114000
     38 HAF         -0.5700    -6.5620    -0.3970 ha         1 SR7       0.116000
     39 HAM         -3.6380     4.5650     1.3380 ha         1 SR7       0.119000
     40 HAN         -6.1200     4.6240     1.1130 ha         1 SR7       0.120000
     41 HAO         -7.3570     2.5700     0.4570 ha         1 SR7       0.136000
     42 HAP         -2.4010     2.4510     0.9070 ha         1 SR7       0.134000
     43 HAQ          6.9120     2.1790    -1.0910 h1         1 SR7       0.037450
     44 HAQA         6.9170     0.4350    -0.7990 h1         1 SR7       0.037450
     45 HAR          8.5480     1.5330     0.7010 h1         1 SR7       0.062450
     46 HARA         7.3110     2.6540     1.2960 h1         1 SR7       0.062450
     47 HNAS         7.3490    -0.2820     1.6860 hn         1 SR7       0.401000
     48 HAT          5.3830    -0.0760     3.0250 h1         1 SR7       0.062450
     49 HATA         5.3760     1.6700     2.7190 h1         1 SR7       0.062450
     50 HAU          4.9520    -0.5570     0.6380 h1         1 SR7       0.037450
     51 HAUA         3.7390     0.5740     1.2500 h1         1 SR7       0.037450
     52 HBA          3.0050    -1.4090    -1.1200 h4         1 SR7       0.167000
     53 HBC          2.6010     3.7040    -1.0560 h4         1 SR7       0.171000
     54 HNBE        -1.7220    -1.2470    -0.1670 hn         1 SR7       0.219000
     55 HBH          4.7010     1.9930    -2.0930 h1         1 SR7       0.050700
     56 HBHA         4.5260     0.2720    -1.7580 h1         1 SR7       0.050700
     57 HAJ         -6.1520    -1.7910    -0.5680 h4         1 SR7       0.054100
@<TRIPOS>BOND
     1     1     2 ar  
     2     1     6 ar  
     3     1    35 1   
     4     2     3 ar  
     5     2    31 1   
     6     3     4 ar  
     7     3    26 1   
     8     4     5 ar  
     9     4    36 1   
    10     5     6 ar  
    11     5    37 1   
    12     6    38 1   
    13     7     8 ar  
    14     7    12 ar  
    15     7    16 ar  
    16     8     9 ar  
    17     8    15 ar  
    18     9    10 ar  
    19    10    11 ar  
    20    10    57 1   
    21    11    12 ar  
    22    11    32 1   
    23    13    14 ar  
    24    13    16 ar  
    25    13    39 1   
    26    14    15 ar  
    27    14    40 1   
    28    15    41 1   
    29    16    42 1   
    30    17    18 1   
    31    17    22 1   
    32    17    43 1   
    33    17    44 1   
    34    18    19 1   
    35    18    45 1   
    36    18    46 1   
    37    19    20 1   
    38    19    47 1   
    39    20    21 1   
    40    20    48 1   
    41    20    49 1   
    42    21    22 1   
    43    21    50 1   
    44    21    51 1   
    45    22    34 1   
    46    23    24 1   
    47    23    27 1   
    48    23    30 1   
    49    24    25 2   
    50    24    28 1   
    51    25    26 1   
    52    26    27 2   
    53    27    52 1   
    54    28    29 1   
    55    29    30 2   
    56    29    53 1   
    57    30    34 1   
    58    31    32 1   
    59    31    54 1   
    60    32    33 2   
    61    34    55 1   
    62    34    56 1   
@<TRIPOS>SUBSTRUCTURE
     1 SR7         1 TEMP              0 ****  ****    0 ROOT
