@<TRIPOS>MOLECULE
SR8
   46    48     1     0     0
SMALL
abcg2


@<TRIPOS>ATOM
      1 O1          81.7280   -59.8640    22.2700 o          1 SR8      -0.595100
      2 C9          82.3290   -60.0000    21.2140 c          1 SR8       0.675100
      3 N3          82.5290   -61.2290    20.6140 ns         1 SR8      -0.495400
      4 C8          82.0710   -62.4380    21.0950 cc         1 SR8       0.423900
      5 C7          81.3010   -62.7240    22.2590 cc         1 SR8      -0.245000
      6 C2          81.1460   -64.0730    22.2280 cd         1 SR8       0.213300
      7 C3          80.4490   -65.0480    23.1330 c3         1 SR8      -0.091300
      8 C6          79.8430   -64.2930    24.3210 c3         1 SR8      -0.085100
      9 C5          79.3320   -65.7600    22.3460 c3         1 SR8      -0.085100
     10 C4          81.4680   -66.0850    23.6440 c3         1 SR8      -0.085100
     11 N1          82.3580   -63.5270    20.4140 nd         1 SR8      -0.434300
     12 N4          82.8760   -58.9680    20.4950 ns         1 SR8      -0.162000
     13 C10         82.8710   -57.6060    20.8380 ca         1 SR8      -0.009000
     14 C20         83.0460   -56.6800    19.8040 ca         1 SR8      -0.135500
     15 C19         83.0870   -55.3200    20.0730 ca         1 SR8      -0.084000
     16 C13         82.9480   -54.8820    21.3800 ca         1 SR8       0.064100
     17 C12         82.7800   -55.7850    22.4170 ca         1 SR8      -0.084000
     18 C11         82.7430   -57.1480    22.1530 ca         1 SR8      -0.135500
     19 O2          83.0420   -53.5180    21.6580 os         1 SR8      -0.250200
     20 C14         81.9000   -52.7910    21.7910 ca         1 SR8       0.168100
     21 C18         82.0440   -51.4450    22.1200 ca         1 SR8      -0.216000
     22 C17         80.9010   -50.6770    22.2570 ca         1 SR8       0.359900
     23 N5          79.6580   -51.1480    22.0930 nb         1 SR8      -0.684000
     24 C16         79.5440   -52.4410    21.7780 ca         1 SR8       0.359900
     25 C15         80.6190   -53.3050    21.6130 ca         1 SR8      -0.216000
     26 O3          81.7660   -64.5740    21.1400 os         1 SR8      -0.085700
     27 H4          83.2220   -59.1770    19.5700 hn         1 SR8       0.154000
     28 H7          80.9370   -62.0270    22.9860 ha         1 SR8       0.176000
     29 H3          83.0790   -61.2800    19.7690 hn         1 SR8       0.334500
     30 H61C        79.3350   -65.0010    24.9770 hc         1 SR8       0.044478
     31 H62C        80.6130   -63.7820    24.9010 hc         1 SR8       0.044478
     32 H63C        79.1130   -63.5520    23.9880 hc         1 SR8       0.044478
     33 H51C        78.8240   -66.4690    23.0000 hc         1 SR8       0.044478
     34 H52C        78.5980   -65.0410    21.9780 hc         1 SR8       0.044478
     35 H53C        79.7390   -66.3060    21.4940 hc         1 SR8       0.044478
     36 H41C        80.9640   -66.7910    24.3060 hc         1 SR8       0.044478
     37 H42C        81.9090   -66.6440    22.8180 hc         1 SR8       0.044478
     38 H43C        82.2690   -65.5990    24.2030 hc         1 SR8       0.044478
     39 H20         83.1500   -57.0320    18.7850 ha         1 SR8       0.134000
     40 H11         82.6190   -57.8490    22.9600 ha         1 SR8       0.134000
     41 H19         83.2200   -54.6030    19.2740 ha         1 SR8       0.134000
     42 H12         82.6830   -55.4230    23.4330 ha         1 SR8       0.134000
     43 H18         83.0280   -51.0190    22.2640 ha         1 SR8       0.136000
     44 H15         80.4530   -54.3410    21.3570 ha         1 SR8       0.136000
     45 H17         80.9910   -49.6270    22.5130 h4         1 SR8       0.020100
     46 H16         78.5360   -52.8200    21.6450 h4         1 SR8       0.020100
@<TRIPOS>BOND
     1     1     2 2   
     2     2     3 1   
     3     2    12 1   
     4     3     4 1   
     5     3    29 1   
     6     4     5 1   
     7     4    11 2   
     8     5     6 2   
     9     5    28 1   
    10     6     7 1   
    11     6    26 1   
    12     7     8 1   
    13     7     9 1   
    14     7    10 1   
    15     8    30 1   
    16     8    31 1   
    17     8    32 1   
    18     9    33 1   
    19     9    34 1   
    20     9    35 1   
    21    10    36 1   
    22    10    37 1   
    23    10    38 1   
    24    11    26 1   
    25    12    13 1   
    26    12    27 1   
    27    13    14 ar  
    28    13    18 ar  
    29    14    15 ar  
    30    14    39 1   
    31    15    16 ar  
    32    15    41 1   
    33    16    17 ar  
    34    16    19 1   
    35    17    18 ar  
    36    17    42 1   
    37    18    40 1   
    38    19    20 1   
    39    20    21 ar  
    40    20    25 ar  
    41    21    22 ar  
    42    21    43 1   
    43    22    23 ar  
    44    22    45 1   
    45    23    24 ar  
    46    24    25 ar  
    47    24    46 1   
    48    25    44 1   
@<TRIPOS>SUBSTRUCTURE
     1 SR8         1 TEMP              0 ****  ****    0 ROOT
