@<TRIPOS>MOLECULE
SR8
   46    48     1     0     0
SMALL
No Charge or Current Charge


@<TRIPOS>ATOM
      1 O1          81.5440   -59.8980    22.3000 o          1 SR8      -0.595100
      2 C9          82.1800   -60.0370    21.2680 c          1 SR8       0.675100
      3 N3          82.4290   -61.2580    20.6910 ns         1 SR8      -0.495400
      4 C8          82.0530   -62.5120    21.1070 cc         1 SR8       0.423900
      5 C7          81.3060   -62.8380    22.2500 cc         1 SR8      -0.245000
      6 C2          81.1950   -64.1900    22.2270 cd         1 SR8       0.213300
      7 C3          80.5100   -65.1620    23.1770 c3         1 SR8      -0.091300
      8 C6          79.8410   -64.4000    24.3540 c3         1 SR8      -0.085100
      9 C5          79.4200   -65.9520    22.4070 c3         1 SR8      -0.085100
     10 C4          81.5600   -66.1490    23.7500 c3         1 SR8      -0.085100
     11 N1          82.4040   -63.5620    20.3930 nd         1 SR8      -0.434300
     12 N4          82.7330   -58.9970    20.5360 ns         1 SR8      -0.162000
     13 C10         82.7500   -57.5880    20.7380 ca         1 SR8      -0.009000
     14 C20         83.3490   -56.7960    19.7390 ca         1 SR8      -0.135500
     15 C19         83.4050   -55.3970    19.8690 ca         1 SR8      -0.084000
     16 C13         82.8540   -54.7730    20.9980 ca         1 SR8       0.064100
     17 C12         82.2680   -55.5540    22.0110 ca         1 SR8      -0.084000
     18 C11         82.2120   -56.9540    21.8810 ca         1 SR8      -0.135500
     19 O2          82.9330   -53.4020    21.1100 os         1 SR8      -0.250200
     20 C14         81.9060   -52.6320    21.6080 ca         1 SR8       0.168100
     21 C18         82.2010   -51.4820    22.3450 ca         1 SR8      -0.216000
     22 C17         81.1450   -50.6980    22.8320 ca         1 SR8       0.359900
     23 N5          79.8450   -51.0000    22.6120 nb         1 SR8      -0.684000
     24 C16         79.5660   -52.1080    21.8880 ca         1 SR8       0.359900
     25 C15         80.5600   -52.9470    21.3650 ca         1 SR8      -0.216000
     26 O3          81.8460   -64.6740    21.1190 os         1 SR8      -0.085700
     27 H4          83.2190   -59.2890    19.6990 hn         1 SR8       0.154000
     28 H7          80.9060   -62.1580    22.9880 ha         1 SR8       0.176000
     29 H3          82.9680   -61.2240    19.8390 hn         1 SR8       0.334500
     30 H61C        79.3460   -65.0970    25.0420 hc         1 SR8       0.044478
     31 H62C        80.5840   -63.8340    24.9290 hc         1 SR8       0.044478
     32 H63C        79.0840   -63.6960    23.9870 hc         1 SR8       0.044478
     33 H51C        78.8980   -66.6520    23.0720 hc         1 SR8       0.044478
     34 H52C        78.6750   -65.2720    21.9780 hc         1 SR8       0.044478
     35 H53C        79.8590   -66.5330    21.5860 hc         1 SR8       0.044478
     36 H41C        81.0970   -66.8540    24.4510 hc         1 SR8       0.044478
     37 H42C        82.0320   -66.7320    22.9500 hc         1 SR8       0.044478
     38 H43C        82.3510   -65.6090    24.2850 hc         1 SR8       0.044478
     39 H20         83.7760   -57.2640    18.8550 ha         1 SR8       0.134000
     40 H11         81.7540   -57.5240    22.6830 ha         1 SR8       0.134000
     41 H19         83.8710   -54.7950    19.0920 ha         1 SR8       0.134000
     42 H12         81.8600   -55.0810    22.9010 ha         1 SR8       0.134000
     43 H18         83.2300   -51.1970    22.5430 ha         1 SR8       0.136000
     44 H15         80.2800   -53.8170    20.7800 ha         1 SR8       0.136000
     45 H17         81.3440   -49.7980    23.4130 h4         1 SR8       0.020100
     46 H16         78.5120   -52.3260    21.7200 h4         1 SR8       0.020100
@<TRIPOS>BOND
     1     1     2 2   
     2     2     3 1   
     3     2    12 1   
     4     3     4 1   
     5     3    29 1   
     6     4     5 1   
     7     4    11 2   
     8     5     6 2   
     9     5    28 1   
    10     6     7 1   
    11     6    26 1   
    12     7     8 1   
    13     7     9 1   
    14     7    10 1   
    15     8    30 1   
    16     8    31 1   
    17     8    32 1   
    18     9    33 1   
    19     9    34 1   
    20     9    35 1   
    21    10    36 1   
    22    10    37 1   
    23    10    38 1   
    24    11    26 1   
    25    12    13 1   
    26    12    27 1   
    27    13    14 ar  
    28    13    18 ar  
    29    14    15 ar  
    30    14    39 1   
    31    15    16 ar  
    32    15    41 1   
    33    16    17 ar  
    34    16    19 1   
    35    17    18 ar  
    36    17    42 1   
    37    18    40 1   
    38    19    20 1   
    39    20    21 ar  
    40    20    25 ar  
    41    21    22 ar  
    42    21    43 1   
    43    22    23 ar  
    44    22    45 1   
    45    23    24 ar  
    46    24    25 ar  
    47    24    46 1   
    48    25    44 1   
@<TRIPOS>SUBSTRUCTURE
     1 SR8         1 TEMP              0 ****  ****    0 ROOT
