@<TRIPOS>MOLECULE
SR9
   55    58     1     0     0
SMALL
No Charge or Current Charge


@<TRIPOS>ATOM
      1 O3         -23.6180    11.9700    18.1730 o          1 SR9      -0.725500
      2 C23        -23.4650    13.1130    17.7660 c          1 SR9       0.708000
      3 O4         -23.8750    14.0980    18.3670 o          1 SR9      -0.725500
      4 C4         -22.8640    13.3140    16.3400 c3         1 SR9      -0.031300
      5 C3         -21.4330    13.9210    16.3750 c3         1 SR9      -0.062400
      6 C1         -20.3740    13.1020    17.1670 c3         1 SR9      -0.058700
      7 C2         -19.0370    13.8720    17.2560 c3         1 SR9      -0.080100
      8 C          -20.1510    11.6870    16.5790 c3         1 SR9      -0.080100
      9 N          -23.7740    14.1520    15.5220 ns         1 SR9      -0.463900
     10 C5         -23.8370    14.1560    14.1440 c          1 SR9       0.616300
     11 O          -23.1480    13.4030    13.4680 o          1 SR9      -0.659100
     12 C6         -24.8040    15.1360    13.5790 cc         1 SR9      -0.164400
     13 C22        -25.0860    15.3810    12.1900 ca         1 SR9      -0.038800
     14 C21        -24.5590    14.7910    11.0290 ca         1 SR9      -0.047000
     15 C20        -25.0160    15.2570     9.7800 ca         1 SR9      -0.143000
     16 C19        -25.9740    16.2920     9.7140 ca         1 SR9      -0.105000
     17 C18        -26.4840    16.8660    10.8960 ca         1 SR9      -0.127000
     18 C17        -26.0220    16.3810    12.1330 ca         1 SR9      -0.043200
     19 N1         -26.3830    16.8060    13.4110 na         1 SR9      -0.208900
     20 C7         -25.6020    16.0230    14.3040 cd         1 SR9      -0.078100
     21 S          -27.5090    18.0680    13.9060 sy         1 SR9       1.219700
     22 O1         -27.6430    17.9500    15.3670 o          1 SR9      -0.531500
     23 O2         -28.6700    17.9510    13.0090 o          1 SR9      -0.531500
     24 C8         -26.6680    19.6090    13.4940 ca         1 SR9      -0.278500
     25 C16        -25.4350    19.9380    14.0960 ca         1 SR9       0.353000
     26 N2         -24.8590    19.1160    15.0050 nb         1 SR9      -0.678000
     27 C15        -23.6730    19.4590    15.5580 ca         1 SR9       0.398900
     28 C14        -23.0000    20.6440    15.2360 ca         1 SR9      -0.167000
     29 C13        -23.5730    21.5140    14.3010 ca         1 SR9      -0.053000
     30 C12        -24.8050    21.1580    13.7220 ca         1 SR9      -0.107000
     31 C11        -25.3940    22.0170    12.7780 ca         1 SR9      -0.030000
     32 C10        -26.6170    21.6740    12.1910 ca         1 SR9      -0.145000
     33 C9         -27.2530    20.4760    12.5430 ca         1 SR9       0.018000
     34 H9         -22.8160    12.3240    15.8700 h1         1 SR9       0.064700
     35 H7         -21.0760    14.0530    15.3470 hc         1 SR9       0.024200
     36 H8         -21.4970    14.9270    16.8090 hc         1 SR9       0.024200
     37 H3         -20.7370    12.9780    18.1950 hc         1 SR9       0.081700
     38 H5         -18.3080    13.3170    17.8590 hc         1 SR9       0.021200
     39 H4         -18.6090    14.0290    16.2590 hc         1 SR9       0.021200
     40 H6         -19.1840    14.8530    17.7250 hc         1 SR9       0.021200
     41 H          -19.3730    11.1550    17.1400 hc         1 SR9       0.021200
     42 H2         -21.0660    11.0860    16.6330 hc         1 SR9       0.021200
     43 H1         -19.8370    11.7450    15.5300 hc         1 SR9       0.021200
     44 H10        -24.3830    14.7930    16.0120 hn         1 SR9       0.340500
     45 H21        -23.8160    13.9990    11.0820 ha         1 SR9       0.146000
     46 H20        -24.6260    14.8200     8.8630 ha         1 SR9       0.105000
     47 H19        -26.3190    16.6500     8.7460 ha         1 SR9       0.101000
     48 H18        -27.2170    17.6660    10.8370 ha         1 SR9       0.120000
     49 H11        -25.6760    16.1750    15.3790 h4         1 SR9       0.255000
     50 H17        -23.2540    18.7610    16.2820 h4         1 SR9       0.042100
     51 H16        -22.0500    20.8760    15.7070 ha         1 SR9       0.130000
     52 H15        -23.0710    22.4410    14.0310 ha         1 SR9       0.115000
     53 H14        -24.9050    22.9480    12.4990 ha         1 SR9       0.113000
     54 H13        -27.0730    22.3370    11.4590 ha         1 SR9       0.118000
     55 H12        -28.2030    20.2330    12.0690 ha         1 SR9       0.142000
@<TRIPOS>BOND
     1     1     2 1   
     2     2     3 1   
     3     2     4 1   
     4     4     5 1   
     5     4     9 1   
     6     4    34 1   
     7     5     6 1   
     8     5    35 1   
     9     5    36 1   
    10     6     7 1   
    11     6     8 1   
    12     6    37 1   
    13     7    38 1   
    14     7    39 1   
    15     7    40 1   
    16     8    41 1   
    17     8    42 1   
    18     8    43 1   
    19     9    10 1   
    20     9    44 1   
    21    10    11 2   
    22    10    12 1   
    23    12    13 1   
    24    12    20 2   
    25    13    14 ar  
    26    13    18 ar  
    27    14    15 ar  
    28    14    45 1   
    29    15    16 ar  
    30    15    46 1   
    31    16    17 ar  
    32    16    47 1   
    33    17    18 ar  
    34    17    48 1   
    35    18    19 1   
    36    19    20 1   
    37    19    21 1   
    38    20    49 1   
    39    21    22 2   
    40    21    23 2   
    41    21    24 1   
    42    24    25 ar  
    43    24    33 ar  
    44    25    26 ar  
    45    25    30 ar  
    46    26    27 ar  
    47    27    28 ar  
    48    27    50 1   
    49    28    29 ar  
    50    28    51 1   
    51    29    30 ar  
    52    29    52 1   
    53    30    31 ar  
    54    31    32 ar  
    55    31    53 1   
    56    32    33 ar  
    57    32    54 1   
    58    33    55 1   
@<TRIPOS>SUBSTRUCTURE
     1 SR9         1 TEMP              0 ****  ****    0 ROOT
