@<TRIPOS>MOLECULE
SR9
   55    58     1     0     0
SMALL
abcg2


@<TRIPOS>ATOM
      1 O3         -23.1370    11.3700    17.7450 o          1 SR9      -0.725500
      2 C23        -23.6260    12.4690    17.3910 c          1 SR9       0.708000
      3 O4         -24.6030    13.0640    17.9140 o          1 SR9      -0.725500
      4 C4         -22.9350    13.1840    16.2050 c3         1 SR9      -0.031300
      5 C3         -21.7560    14.0540    16.6820 c3         1 SR9      -0.062400
      6 C1         -20.5380    13.3100    17.2390 c3         1 SR9      -0.058700
      7 C2         -19.5500    14.3130    17.8400 c3         1 SR9      -0.080100
      8 C          -19.8500    12.4550    16.1720 c3         1 SR9      -0.080100
      9 N          -23.9210    14.0140    15.5300 ns         1 SR9      -0.463900
     10 C5         -23.8600    14.3460    14.2300 c          1 SR9       0.616300
     11 O          -22.9620    13.9450    13.4760 o          1 SR9      -0.659100
     12 C6         -24.9190    15.2470    13.7250 cc         1 SR9      -0.164400
     13 C22        -25.2240    15.4970    12.3290 ca         1 SR9      -0.038800
     14 C21        -24.7320    14.9860    11.1240 ca         1 SR9      -0.047000
     15 C20        -25.2550    15.4660     9.9320 ca         1 SR9      -0.143000
     16 C19        -26.2630    16.4390     9.9210 ca         1 SR9      -0.105000
     17 C18        -26.7800    16.9530    11.1030 ca         1 SR9      -0.127000
     18 C17        -26.2480    16.4690    12.2910 ca         1 SR9      -0.043200
     19 N1         -26.5560    16.7900    13.6280 na         1 SR9      -0.208900
     20 C7         -25.7210    16.0620    14.4680 cd         1 SR9      -0.078100
     21 S          -27.4360    18.1350    14.1180 sy         1 SR9       1.219700
     22 O1         -27.4780    18.0830    15.5530 o          1 SR9      -0.531500
     23 O2         -28.6680    18.1130    13.3760 o          1 SR9      -0.531500
     24 C8         -26.4740    19.5030    13.5400 ca         1 SR9      -0.278500
     25 C16        -25.1330    19.6910    13.9840 ca         1 SR9       0.353000
     26 N2         -24.5800    18.8250    14.8660 nb         1 SR9      -0.678000
     27 C15        -23.3320    19.0190    15.2340 ca         1 SR9       0.398900
     28 C14        -22.5340    20.0850    14.7710 ca         1 SR9      -0.167000
     29 C13        -23.0760    20.9740    13.8820 ca         1 SR9      -0.053000
     30 C12        -24.4120    20.7990    13.4540 ca         1 SR9      -0.107000
     31 C11        -25.0360    21.6700    12.5300 ca         1 SR9      -0.030000
     32 C10        -26.3280    21.4550    12.1290 ca         1 SR9      -0.145000
     33 C9         -27.0520    20.3570    12.6310 ca         1 SR9       0.018000
     34 H9         -22.5810    12.4350    15.4990 h1         1 SR9       0.064700
     35 H7         -21.4340    14.6670    15.8340 hc         1 SR9       0.024200
     36 H8         -22.1370    14.7450    17.4410 hc         1 SR9       0.024200
     37 H3         -20.8800    12.6480    18.0390 hc         1 SR9       0.081700
     38 H5         -18.6830    13.8020    18.2670 hc         1 SR9       0.021200
     39 H4         -19.1870    15.0050    17.0750 hc         1 SR9       0.021200
     40 H6         -20.0190    14.9030    18.6310 hc         1 SR9       0.021200
     41 H          -18.9710    11.9550    16.5860 hc         1 SR9       0.021200
     42 H2         -20.5130    11.6850    15.7750 hc         1 SR9       0.021200
     43 H1         -19.5180    13.0780    15.3360 hc         1 SR9       0.021200
     44 H10        -24.7130    14.2640    16.1050 hn         1 SR9       0.340500
     45 H21        -23.9520    14.2390    11.1330 ha         1 SR9       0.146000
     46 H20        -24.8780    15.0820     8.9920 ha         1 SR9       0.105000
     47 H19        -26.6510    16.7950     8.9760 ha         1 SR9       0.101000
     48 H18        -27.5660    17.6930    11.0920 ha         1 SR9       0.120000
     49 H11        -25.7710    16.2220    15.5290 h4         1 SR9       0.255000
     50 H17        -22.9180    18.3010    15.9340 h4         1 SR9       0.042100
     51 H16        -21.5150    20.1840    15.1200 ha         1 SR9       0.130000
     52 H15        -22.5030    21.8080    13.4960 ha         1 SR9       0.115000
     53 H14        -24.4680    22.5070    12.1430 ha         1 SR9       0.113000
     54 H13        -26.8020    22.1180    11.4190 ha         1 SR9       0.118000
     55 H12        -28.0640    20.1800    12.2990 ha         1 SR9       0.142000
@<TRIPOS>BOND
     1     1     2 1   
     2     2     3 1   
     3     2     4 1   
     4     4     5 1   
     5     4     9 1   
     6     4    34 1   
     7     5     6 1   
     8     5    35 1   
     9     5    36 1   
    10     6     7 1   
    11     6     8 1   
    12     6    37 1   
    13     7    38 1   
    14     7    39 1   
    15     7    40 1   
    16     8    41 1   
    17     8    42 1   
    18     8    43 1   
    19     9    10 1   
    20     9    44 1   
    21    10    11 2   
    22    10    12 1   
    23    12    13 1   
    24    12    20 2   
    25    13    14 ar  
    26    13    18 ar  
    27    14    15 ar  
    28    14    45 1   
    29    15    16 ar  
    30    15    46 1   
    31    16    17 ar  
    32    16    47 1   
    33    17    18 ar  
    34    17    48 1   
    35    18    19 1   
    36    19    20 1   
    37    19    21 1   
    38    20    49 1   
    39    21    22 2   
    40    21    23 2   
    41    21    24 1   
    42    24    25 ar  
    43    24    33 ar  
    44    25    26 ar  
    45    25    30 ar  
    46    26    27 ar  
    47    27    28 ar  
    48    27    50 1   
    49    28    29 ar  
    50    28    51 1   
    51    29    30 ar  
    52    29    52 1   
    53    30    31 ar  
    54    31    32 ar  
    55    31    53 1   
    56    32    33 ar  
    57    32    54 1   
    58    33    55 1   
@<TRIPOS>SUBSTRUCTURE
     1 SR9         1 TEMP              0 ****  ****    0 ROOT
