@<TRIPOS>MOLECULE
SRE
   37    39     1     0     0
SMALL
No Charge or Current Charge


@<TRIPOS>ATOM
      1 Cl19        -4.9920    -0.1220     0.1150 cl         1 SRE      -0.173000
      2 C16         -3.2890     0.1190    -0.2790 ca         1 SRE       0.116000
      3 C15         -2.2780    -0.6130     0.3770 ca         1 SRE       0.118000
      4 Cl20        -2.6740    -1.8010     1.6200 cl         1 SRE      -0.174000
      5 C17         -2.9430     1.0590    -1.2640 ca         1 SRE      -0.096000
      6 C18         -1.5930     1.2710    -1.5960 ca         1 SRE      -0.101000
      7 C13         -0.5780     0.5430    -0.9440 ca         1 SRE      -0.064300
      8 C14         -0.9300    -0.4000     0.0430 ca         1 SRE      -0.089000
      9 C4           0.8970     0.7740    -1.3020 c6         1 SRE       0.025900
     10 C5           1.7600     1.0660    -0.0550 ca         1 SRE      -0.065300
     11 C6           1.2960     2.0160     0.8800 ca         1 SRE      -0.108000
     12 C7           2.0660     2.3550     2.0040 ca         1 SRE      -0.105000
     13 C8           3.3200     1.7600     2.1970 ca         1 SRE      -0.111000
     14 C9           3.8010     0.8230     1.2680 ca         1 SRE      -0.103000
     15 C10          3.0280     0.4580     0.1450 ca         1 SRE      -0.115300
     16 C1           3.5980    -0.5630    -0.8560 c6         1 SRE       0.222800
     17 N11          3.3910    -1.9540    -0.3870 n7         1 SRE      -0.865400
     18 C12          4.1180    -2.4050     0.8160 c3         1 SRE       0.147100
     19 C2           2.9690    -0.3850    -2.2560 c6         1 SRE      -0.068400
     20 C3           1.4270    -0.3930    -2.1750 c6         1 SRE      -0.071400
     21 H17         -3.7220     1.6240    -1.7710 ha         1 SRE       0.132000
     22 H18         -1.3390     2.0020    -2.3620 ha         1 SRE       0.121000
     23 H14         -0.1580    -0.9670     0.5560 ha         1 SRE       0.135000
     24 H4           0.9590     1.6790    -1.9230 hc         1 SRE       0.062700
     25 H6           0.3350     2.5030     0.7320 ha         1 SRE       0.116000
     26 H7           1.6950     3.0870     2.7180 ha         1 SRE       0.115000
     27 H8           3.9230     2.0280     3.0610 ha         1 SRE       0.114000
     28 H9           4.7820     0.3790     1.4220 ha         1 SRE       0.111000
     29 H1           4.6810    -0.3870    -0.9550 h1         1 SRE       0.064700
     30 H12          5.1980    -2.2430     0.7040 h1         1 SRE       0.030367
     31 H12A         3.7760    -1.8670     1.7100 h1         1 SRE       0.030367
     32 H2           3.3100     0.5640    -2.6920 hc         1 SRE       0.054200
     33 H2A          3.3190    -1.1780    -2.9310 hc         1 SRE       0.054200
     34 H3           1.0840    -1.3550    -1.7700 hc         1 SRE       0.048200
     35 H3A          0.9980    -0.3220    -3.1840 hc         1 SRE       0.048200
     36 H16          2.3870    -2.0850    -0.2260 hn         1 SRE       0.412000
     37 H171         3.9500    -3.4760     0.9850 h1         1 SRE       0.030367
@<TRIPOS>BOND
     1     1     2 1   
     2     2     3 ar  
     3     2     5 ar  
     4     3     4 1   
     5     3     8 ar  
     6     5     6 ar  
     7     5    21 1   
     8     6     7 ar  
     9     6    22 1   
    10     7     8 ar  
    11     7     9 1   
    12     8    23 1   
    13     9    10 1   
    14     9    20 1   
    15     9    24 1   
    16    10    11 ar  
    17    10    15 ar  
    18    11    12 ar  
    19    11    25 1   
    20    12    13 ar  
    21    12    26 1   
    22    13    14 ar  
    23    13    27 1   
    24    14    15 ar  
    25    14    28 1   
    26    15    16 1   
    27    16    17 1   
    28    16    19 1   
    29    16    29 1   
    30    17    18 1   
    31    17    36 1   
    32    18    30 1   
    33    18    31 1   
    34    18    37 1   
    35    19    20 1   
    36    19    32 1   
    37    19    33 1   
    38    20    34 1   
    39    20    35 1   
@<TRIPOS>SUBSTRUCTURE
     1 SRE         1 TEMP              0 ****  ****    0 ROOT
