@<TRIPOS>MOLECULE
SRE
   37    39     1     0     0
SMALL
abcg2


@<TRIPOS>ATOM
      1 CL19        -4.9080    -0.1800     0.0300 cl         1 SRE      -0.173000
      2 C16         -3.2440     0.0930    -0.3260 ca         1 SRE       0.116000
      3 C15         -2.2470    -0.6100     0.3450 ca         1 SRE       0.118000
      4 CL20        -2.6580    -1.7750     1.5480 cl         1 SRE      -0.174000
      5 C17         -2.8910     1.0260    -1.2860 ca         1 SRE      -0.096000
      6 C18         -1.5540     1.2540    -1.5740 ca         1 SRE      -0.101000
      7 C13         -0.5500     0.5580    -0.9120 ca         1 SRE      -0.064300
      8 C14         -0.9140    -0.3760     0.0530 ca         1 SRE      -0.089000
      9 C4           0.9030     0.7710    -1.2580 c6         1 SRE       0.025900
     10 C5           1.7620     1.0400    -0.0340 ca         1 SRE      -0.065300
     11 C6           1.3110     1.9650     0.9090 ca         1 SRE      -0.108000
     12 C7           2.0870     2.3220     1.9990 ca         1 SRE      -0.105000
     13 C8           3.3500     1.7640     2.1540 ca         1 SRE      -0.111000
     14 C9           3.8090     0.8510     1.2200 ca         1 SRE      -0.103000
     15 C10          3.0270     0.4670     0.1280 ca         1 SRE      -0.115300
     16 C1           3.5530    -0.5760    -0.8390 c6         1 SRE       0.222800
     17 N11          3.3340    -1.9500    -0.3970 n7         1 SRE      -0.865400
     18 C12          4.0480    -2.3450     0.7990 c3         1 SRE       0.147100
     19 C2           2.9330    -0.3770    -2.2160 c6         1 SRE      -0.068400
     20 C3           1.4150    -0.3840    -2.1270 c6         1 SRE      -0.071400
     21 H17         -3.6620     1.5780    -1.8070 ha         1 SRE       0.132000
     22 H18         -1.2970     1.9900    -2.3250 ha         1 SRE       0.121000
     23 H14         -0.1540    -0.9270     0.5940 ha         1 SRE       0.135000
     24 H4           0.9580     1.6780    -1.8730 hc         1 SRE       0.062700
     25 H6           0.3350     2.4180     0.7830 ha         1 SRE       0.116000
     26 H7           1.7120     3.0410     2.7170 ha         1 SRE       0.115000
     27 H8           3.9750     2.0480     2.9910 ha         1 SRE       0.114000
     28 H9           4.8030     0.4340     1.3300 ha         1 SRE       0.111000
     29 H1           4.6370    -0.4470    -0.9220 h1         1 SRE       0.064700
     30 H12          5.1220    -2.2190     0.6470 h1         1 SRE       0.030367
     31 H12A         3.7770    -1.7940     1.7080 h1         1 SRE       0.030367
     32 H2           3.2730     0.5760    -2.6330 hc         1 SRE       0.054200
     33 H2A          3.2790    -1.1640    -2.8880 hc         1 SRE       0.054200
     34 H3           1.0660    -1.3420    -1.7310 hc         1 SRE       0.048200
     35 H3A          0.9720    -0.2980    -3.1210 hc         1 SRE       0.048200
     36 H16          2.3450    -2.1130    -0.2550 hn         1 SRE       0.412000
     37 H171         3.8670    -3.4030     0.9910 h1         1 SRE       0.030367
@<TRIPOS>BOND
     1     1     2 1   
     2     2     3 ar  
     3     2     5 ar  
     4     3     4 1   
     5     3     8 ar  
     6     5     6 ar  
     7     5    21 1   
     8     6     7 ar  
     9     6    22 1   
    10     7     8 ar  
    11     7     9 1   
    12     8    23 1   
    13     9    10 1   
    14     9    20 1   
    15     9    24 1   
    16    10    11 ar  
    17    10    15 ar  
    18    11    12 ar  
    19    11    25 1   
    20    12    13 ar  
    21    12    26 1   
    22    13    14 ar  
    23    13    27 1   
    24    14    15 ar  
    25    14    28 1   
    26    15    16 1   
    27    16    17 1   
    28    16    19 1   
    29    16    29 1   
    30    17    18 1   
    31    17    36 1   
    32    18    30 1   
    33    18    31 1   
    34    18    37 1   
    35    19    20 1   
    36    19    32 1   
    37    19    33 1   
    38    20    34 1   
    39    20    35 1   
@<TRIPOS>SUBSTRUCTURE
     1 SRE         1 TEMP              0 ****  ****    0 ROOT
