@<TRIPOS>MOLECULE
SRF
   73    75     1     0     0
SMALL
abcg2


@<TRIPOS>ATOM
      1 C4          -9.9530    -7.4000   -31.2720 c2         1 SRF      -0.317000
      2 C5          -8.6410    -7.4830   -31.4930 ce         1 SRF      -0.074200
      3 C6          -7.7240    -8.3080   -30.6270 c6         1 SRF      -0.033200
      4 C7          -6.8830    -9.2690   -31.4670 c6         1 SRF      -0.108400
      5 C8          -6.1390    -8.5460   -32.5860 c6         1 SRF       0.174300
      6 C9          -7.1270    -7.7780   -33.4580 c6         1 SRF      -0.029200
      7 C10         -7.9750    -6.8370   -32.6430 ce         1 SRF      -0.069200
      8 C12         -8.0600    -5.5320   -32.9510 cf         1 SRF      -0.159000
      9 C14        -12.5790     1.5240   -31.0040 c3         1 SRF      -0.091100
     10 C15        -18.9450    -0.9040   -32.0900 c3         1 SRF      -0.106100
     11 F2         -16.5900    -0.9450   -30.4880 f          1 SRF      -0.128000
     12 C18        -16.4350    -0.6970   -31.8320 c3         1 SRF       0.151000
     13 F1         -16.3370    -1.9390   -32.4080 f          1 SRF      -0.128000
     14 C17        -17.7270    -0.0150   -32.3370 c3         1 SRF       0.151000
     15 C16        -17.6150     0.3100   -33.8220 c3         1 SRF      -0.106100
     16 O13        -17.8660     1.2200   -31.6630 oh         1 SRF      -0.655000
     17 C20        -13.9280    -0.5690   -31.3750 c3         1 SRF      -0.071400
     18 C22        -12.6300     0.1730   -31.7210 c3         1 SRF      -0.045700
     19 C25        -11.3400    -0.6160   -31.4300 c5         1 SRF      -0.055700
     20 C29        -10.8060    -1.5660   -32.5200 c5         1 SRF      -0.041000
     21 C24        -11.8380    -2.6070   -32.9550 c3         1 SRF      -0.077100
     22 C30         -9.6450    -2.2170   -31.7350 c5         1 SRF      -0.034500
     23 C27        -10.2660    -2.5860   -30.3930 c5         1 SRF      -0.070400
     24 C26        -11.3110    -1.4700   -30.1420 c5         1 SRF      -0.074400
     25 C31         -8.9050    -3.2200   -32.5610 c2         1 SRF      -0.084400
     26 C32         -8.3400    -2.5840   -33.8050 c6         1 SRF      -0.041200
     27 C33         -9.4020    -1.8210   -34.6080 c6         1 SRF      -0.070400
     28 C28        -10.2230    -0.8620   -33.7440 c6         1 SRF      -0.063400
     29 C23         -8.7780    -4.5110   -32.2120 cf         1 SRF      -0.184000
     30 O3          -5.2030    -7.6130   -32.0850 oh         1 SRF      -0.653000
     31 H1         -10.4160    -7.9100   -30.4360 ha         1 SRF       0.165500
     32 H2         -10.6060    -6.8280   -31.9200 ha         1 SRF       0.165500
     33 H3          -8.3000    -8.8600   -29.8810 hc         1 SRF       0.050200
     34 H4          -7.0580    -7.6350   -30.0800 hc         1 SRF       0.050200
     35 H5          -7.5280   -10.0300   -31.9150 hc         1 SRF       0.043700
     36 H6          -6.1730    -9.8020   -30.8280 hc         1 SRF       0.043700
     37 H7          -5.6360    -9.2960   -33.2140 h1         1 SRF       0.028700
     38 H8          -6.5980    -7.2390   -34.2470 hc         1 SRF       0.053700
     39 H9          -7.7710    -8.5140   -33.9510 hc         1 SRF       0.053700
     40 H10         -7.5060    -5.2090   -33.8270 ha         1 SRF       0.169000
     41 H11        -13.4630     2.1340   -31.1990 hc         1 SRF       0.033033
     42 H12        -12.5080     1.3850   -29.9230 hc         1 SRF       0.033033
     43 H13        -11.7100     2.1010   -31.3220 hc         1 SRF       0.033033
     44 H14        -19.0730    -1.1480   -31.0340 hc         1 SRF       0.052033
     45 H15        -19.8410    -0.3770   -32.4190 hc         1 SRF       0.052033
     46 H16        -18.8930    -1.8380   -32.6470 hc         1 SRF       0.052033
     47 H17        -16.8300     1.0390   -34.0240 hc         1 SRF       0.052033
     48 H18        -17.4090    -0.5840   -34.4070 hc         1 SRF       0.052033
     49 H19        -18.5570     0.7290   -34.1760 hc         1 SRF       0.052033
     50 H20        -18.1430     1.0560   -30.7550 ho         1 SRF       0.454000
     51 H21        -14.9660     0.1220   -33.1280 hc         1 SRF       0.066700
     52 H22        -15.2910     1.0860   -31.7070 hc         1 SRF       0.066700
     53 H23        -14.0620    -0.5680   -30.2910 hc         1 SRF       0.054700
     54 H24        -13.8500    -1.6130   -31.6760 hc         1 SRF       0.054700
     55 H25        -12.6420     0.3740   -32.8010 hc         1 SRF       0.045700
     56 H26        -10.5500     0.1390   -31.3210 hc         1 SRF       0.042700
     57 H27        -12.3030    -3.1170   -32.1110 hc         1 SRF       0.035367
     58 H28        -12.6350    -2.1400   -33.5380 hc         1 SRF       0.035367
     59 H29        -11.3930    -3.3800   -33.5830 hc         1 SRF       0.035367
     60 H30         -8.9320    -1.3990   -31.5470 hc         1 SRF       0.051700
     61 H31        -10.7550    -3.5610   -30.4390 hc         1 SRF       0.044700
     62 H32         -9.5180    -2.6490   -29.6010 hc         1 SRF       0.044700
     63 H33        -11.0540    -0.8620   -29.2740 hc         1 SRF       0.042700
     64 H34        -12.2850    -1.9110   -29.9280 hc         1 SRF       0.042700
     65 H35         -7.8480    -3.3080   -34.4550 hc         1 SRF       0.045700
     66 H36         -7.5650    -1.8720   -33.4950 hc         1 SRF       0.045700
     67 H37        -10.0630    -2.5380   -35.1020 hc         1 SRF       0.039700
     68 H38         -8.9100    -1.2640   -35.4080 hc         1 SRF       0.039700
     69 H39         -9.5800    -0.0420   -33.4050 hc         1 SRF       0.038700
     70 H40        -11.0140    -0.4090   -34.3490 hc         1 SRF       0.038700
     71 H41         -9.2390    -4.8270   -31.2830 ha         1 SRF       0.177000
     72 H42         -4.5860    -8.0830   -31.5160 ho         1 SRF       0.437000
     73 C19        -15.1450     0.0610   -32.0510 c3         1 SRF      -0.121400
@<TRIPOS>BOND
     1     1     2 2   
     2     1    31 1   
     3     1    32 1   
     4     2     3 1   
     5     2     7 1   
     6     3     4 1   
     7     3    33 1   
     8     3    34 1   
     9     4     5 1   
    10     4    35 1   
    11     4    36 1   
    12     5     6 1   
    13     5    30 1   
    14     5    37 1   
    15     6     7 1   
    16     6    38 1   
    17     6    39 1   
    18     7     8 2   
    19     8    29 1   
    20     8    40 1   
    21     9    18 1   
    22     9    41 1   
    23     9    42 1   
    24     9    43 1   
    25    10    14 1   
    26    10    44 1   
    27    10    45 1   
    28    10    46 1   
    29    11    12 1   
    30    12    13 1   
    31    12    14 1   
    32    12    73 1   
    33    14    15 1   
    34    14    16 1   
    35    15    47 1   
    36    15    48 1   
    37    15    49 1   
    38    16    50 1   
    39    17    18 1   
    40    17    53 1   
    41    17    54 1   
    42    17    73 1   
    43    18    19 1   
    44    18    55 1   
    45    19    20 1   
    46    19    24 1   
    47    19    56 1   
    48    20    21 1   
    49    20    22 1   
    50    20    28 1   
    51    21    57 1   
    52    21    58 1   
    53    21    59 1   
    54    22    23 1   
    55    22    25 1   
    56    22    60 1   
    57    23    24 1   
    58    23    61 1   
    59    23    62 1   
    60    24    63 1   
    61    24    64 1   
    62    25    26 1   
    63    25    29 2   
    64    26    27 1   
    65    26    65 1   
    66    26    66 1   
    67    27    28 1   
    68    27    67 1   
    69    27    68 1   
    70    28    69 1   
    71    28    70 1   
    72    29    71 1   
    73    30    72 1   
    74    51    73 1   
    75    52    73 1   
@<TRIPOS>SUBSTRUCTURE
     1 SRF         1 TEMP              0 ****  ****    0 ROOT
