@<TRIPOS>MOLECULE
SRF
   73    75     1     0     0
SMALL
No Charge or Current Charge


@<TRIPOS>ATOM
      1 C4          -9.6270    -7.3800   -31.1230 c2         1 SRF      -0.317000
      2 C5          -8.2970    -7.4650   -31.3380 ce         1 SRF      -0.074200
      3 C6          -7.3720    -8.2460   -30.3990 c6         1 SRF      -0.033200
      4 C7          -6.5460    -9.2960   -31.1850 c6         1 SRF      -0.108400
      5 C8          -5.7920    -8.6670   -32.3860 c6         1 SRF       0.174300
      6 C9          -6.7700    -7.8770   -33.2970 c6         1 SRF      -0.029200
      7 C10         -7.6200    -6.8700   -32.5060 ce         1 SRF      -0.069200
      8 C12         -7.7580    -5.5780   -32.9270 cf         1 SRF      -0.159000
      9 C14        -12.7100     1.3230   -30.6590 c3         1 SRF      -0.091100
     10 C15        -19.2160    -0.5550   -32.4080 c3         1 SRF      -0.106100
     11 F2         -16.7800    -1.3470   -31.0260 f          1 SRF      -0.128000
     12 C18        -16.6430    -0.5430   -32.1100 c3         1 SRF       0.151000
     13 F1         -16.5190    -1.3650   -33.1810 f          1 SRF      -0.128000
     14 C17        -17.9510     0.3330   -32.2730 c3         1 SRF       0.151000
     15 C16        -17.8720     1.2960   -33.4860 c3         1 SRF      -0.106100
     16 O13        -18.1390     1.1460   -31.1050 oh         1 SRF      -0.655000
     17 C20        -14.0580    -0.5920   -31.6870 c3         1 SRF      -0.071400
     18 C22        -12.7030     0.1850   -31.7160 c3         1 SRF      -0.045700
     19 C25        -11.3960    -0.7140   -31.5200 c5         1 SRF      -0.055700
     20 C29        -10.9550    -1.7350   -32.6310 c5         1 SRF      -0.041000
     21 C24        -11.9730    -2.8820   -32.9570 c3         1 SRF      -0.077100
     22 C30         -9.6520    -2.2500   -31.8940 c5         1 SRF      -0.034500
     23 C27        -10.2420    -2.7030   -30.5250 c5         1 SRF      -0.070400
     24 C26        -11.3070    -1.5870   -30.2110 c5         1 SRF      -0.074400
     25 C31         -8.8660    -3.3100   -32.7310 c2         1 SRF      -0.084400
     26 C32         -8.4750    -2.7900   -34.1310 c6         1 SRF      -0.041200
     27 C33         -9.6480    -2.1120   -34.9060 c6         1 SRF      -0.070400
     28 C28        -10.4740    -1.1130   -33.9980 c6         1 SRF      -0.063400
     29 C23         -8.5300    -4.5370   -32.2460 cf         1 SRF      -0.184000
     30 O3          -4.7370    -7.8150   -31.9210 oh         1 SRF      -0.653000
     31 H1         -10.1030    -7.8450   -30.2600 ha         1 SRF       0.165500
     32 H2         -10.2810    -6.8440   -31.8100 ha         1 SRF       0.165500
     33 H3          -7.9530    -8.7500   -29.6140 hc         1 SRF       0.050200
     34 H4          -6.7010    -7.5460   -29.8840 hc         1 SRF       0.050200
     35 H5          -7.2230   -10.0760   -31.5580 hc         1 SRF       0.043700
     36 H6          -5.8400    -9.8010   -30.5120 hc         1 SRF       0.043700
     37 H7          -5.3560    -9.4830   -32.9810 h1         1 SRF       0.028700
     38 H8          -6.2050    -7.3750   -34.0950 hc         1 SRF       0.053700
     39 H9          -7.4410    -8.5850   -33.8020 hc         1 SRF       0.053700
     40 H10         -7.2190    -5.2960   -33.8310 ha         1 SRF       0.169000
     41 H11        -13.4780     2.0720   -30.8790 hc         1 SRF       0.033033
     42 H12        -12.8930     0.9240   -29.6540 hc         1 SRF       0.033033
     43 H13        -11.7490     1.8520   -30.6450 hc         1 SRF       0.033033
     44 H14        -19.3320    -1.2230   -31.5450 hc         1 SRF       0.052033
     45 H15        -20.1210     0.0600   -32.4770 hc         1 SRF       0.052033
     46 H16        -19.1650    -1.1760   -33.3110 hc         1 SRF       0.052033
     47 H17        -17.0770     2.0390   -33.3580 hc         1 SRF       0.052033
     48 H18        -17.6810     0.7440   -34.4140 hc         1 SRF       0.052033
     49 H19        -18.8140     1.8440   -33.6100 hc         1 SRF       0.052033
     50 H20        -18.0990     0.5440   -30.3300 ho         1 SRF       0.454000
     51 H21        -15.1530     0.8580   -32.8660 hc         1 SRF       0.066700
     52 H22        -15.4530     0.9880   -31.1360 hc         1 SRF       0.066700
     53 H23        -14.1730    -1.0940   -30.7200 hc         1 SRF       0.054700
     54 H24        -14.0410    -1.3740   -32.4460 hc         1 SRF       0.054700
     55 H25        -12.6890     0.7080   -32.6980 hc         1 SRF       0.045700
     56 H26        -10.6040     0.0440   -31.4590 hc         1 SRF       0.042700
     57 H27        -12.5370    -3.2150   -32.0780 hc         1 SRF       0.035367
     58 H28        -12.7000    -2.5690   -33.7150 hc         1 SRF       0.035367
     59 H29        -11.4690    -3.7680   -33.3610 hc         1 SRF       0.035367
     60 H30         -8.9550    -1.4200   -31.7170 hc         1 SRF       0.051700
     61 H31        -10.7250    -3.6840   -30.5870 hc         1 SRF       0.044700
     62 H32         -9.4720    -2.7720   -29.7470 hc         1 SRF       0.044700
     63 H33        -11.0090    -0.9760   -29.3520 hc         1 SRF       0.042700
     64 H34        -12.2650    -2.0450   -29.9470 hc         1 SRF       0.042700
     65 H35         -8.0670    -3.5840   -34.7660 hc         1 SRF       0.045700
     66 H36         -7.6640    -2.0590   -34.0100 hc         1 SRF       0.045700
     67 H37        -10.3180    -2.8890   -35.2970 hc         1 SRF       0.039700
     68 H38         -9.2560    -1.5810   -35.7850 hc         1 SRF       0.039700
     69 H39         -9.8470    -0.2340   -33.7910 hc         1 SRF       0.038700
     70 H40        -11.3380    -0.7310   -34.5600 hc         1 SRF       0.038700
     71 H41         -8.8410    -4.7960   -31.2360 ha         1 SRF       0.177000
     72 H42         -4.1560    -8.3710   -31.3590 ho         1 SRF       0.437000
     73 C19        -15.3240     0.2720   -31.9550 c3         1 SRF      -0.121400
@<TRIPOS>BOND
     1     1     2 2   
     2     1    31 1   
     3     1    32 1   
     4     2     3 1   
     5     2     7 1   
     6     3     4 1   
     7     3    33 1   
     8     3    34 1   
     9     4     5 1   
    10     4    35 1   
    11     4    36 1   
    12     5     6 1   
    13     5    30 1   
    14     5    37 1   
    15     6     7 1   
    16     6    38 1   
    17     6    39 1   
    18     7     8 2   
    19     8    29 1   
    20     8    40 1   
    21     9    18 1   
    22     9    41 1   
    23     9    42 1   
    24     9    43 1   
    25    10    14 1   
    26    10    44 1   
    27    10    45 1   
    28    10    46 1   
    29    11    12 1   
    30    12    13 1   
    31    12    14 1   
    32    12    73 1   
    33    14    15 1   
    34    14    16 1   
    35    15    47 1   
    36    15    48 1   
    37    15    49 1   
    38    16    50 1   
    39    17    18 1   
    40    17    53 1   
    41    17    54 1   
    42    17    73 1   
    43    18    19 1   
    44    18    55 1   
    45    19    20 1   
    46    19    24 1   
    47    19    56 1   
    48    20    21 1   
    49    20    22 1   
    50    20    28 1   
    51    21    57 1   
    52    21    58 1   
    53    21    59 1   
    54    22    23 1   
    55    22    25 1   
    56    22    60 1   
    57    23    24 1   
    58    23    61 1   
    59    23    62 1   
    60    24    63 1   
    61    24    64 1   
    62    25    26 1   
    63    25    29 2   
    64    26    27 1   
    65    26    65 1   
    66    26    66 1   
    67    27    28 1   
    68    27    67 1   
    69    27    68 1   
    70    28    69 1   
    71    28    70 1   
    72    29    71 1   
    73    30    72 1   
    74    51    73 1   
    75    52    73 1   
@<TRIPOS>SUBSTRUCTURE
     1 SRF         1 TEMP              0 ****  ****    0 ROOT
