@<TRIPOS>MOLECULE
SRJ
   46    49     1     0     0
SMALL
abcg2


@<TRIPOS>ATOM
      1 C4          47.7530   120.5060    31.0910 cx         1 SRJ      -0.133900
      2 C5          46.5770   120.0990    31.9250 cx         1 SRJ      -0.133900
      3 C6          46.3620   116.9010    32.9690 c6         1 SRJ       0.190500
      4 C7          46.2860   115.8800    34.1010 c6         1 SRJ      -0.089900
      5 C8          46.4970   114.4690    33.5190 c6         1 SRJ      -0.086400
      6 C10         45.9130   115.2090    31.2190 c6         1 SRJ      -0.086400
      7 C13         51.4620   116.1190    31.9090 ca         1 SRJ      -0.089500
      8 C15         52.4910   118.1550    32.6790 ca         1 SRJ      -0.106000
      9 C17         50.5390   117.2870    33.7870 ca         1 SRJ      -0.089500
     10 N           47.7300   116.9300    32.4630 n3         1 SRJ      -0.748600
     11 C           49.3740   115.2040    32.9950 c3         1 SRJ       0.219600
     12 O           49.8010   113.9070    32.6200 oh         1 SRJ      -0.680000
     13 C1          48.2030   115.6020    32.0740 c6         1 SRJ       0.169500
     14 C11         45.3700   116.4880    31.8790 c6         1 SRJ      -0.089900
     15 C12         50.4920   116.2130    32.9030 ca         1 SRJ      -0.119300
     16 C14         52.4560   117.0830    31.7970 ca         1 SRJ      -0.118500
     17 C16         51.5290   118.2540    33.6760 ca         1 SRJ      -0.118500
     18 C2          48.0160   117.9620    31.4850 c3         1 SRJ       0.215800
     19 C3          47.8720   119.3530    32.0410 cx         1 SRJ      -0.122700
     20 C9          47.0200   114.6050    32.0860 c6         1 SRJ       0.176000
     21 O1          47.3680   113.3610    31.5220 oh         1 SRJ      -0.658000
     22 H1          47.7230   120.2930    30.0290 hc         1 SRJ       0.069700
     23 H2          48.2640   121.4270    31.3410 hc         1 SRJ       0.069700
     24 H3          46.2780   120.7430    32.7420 hc         1 SRJ       0.069700
     25 H4          45.7530   119.6010    31.4280 hc         1 SRJ       0.069700
     26 H5          46.1190   117.8920    33.3560 h1         1 SRJ       0.069700
     27 H7          45.3180   115.9560    34.5980 hc         1 SRJ       0.045950
     28 H8          45.5630   113.9000    33.5020 hc         1 SRJ       0.050950
     29 H9          47.1970   113.8910    34.1290 hc         1 SRJ       0.050950
     30 H10         45.1210   114.4680    31.0850 hc         1 SRJ       0.050950
     31 H11         46.3180   115.4240    30.2260 hc         1 SRJ       0.050950
     32 H12         51.4420   115.2900    31.2120 ha         1 SRJ       0.119000
     33 H13         53.2650   118.9070    32.5910 ha         1 SRJ       0.111000
     34 H14         49.7940   117.3700    34.5680 ha         1 SRJ       0.119000
     35 H16         49.0030   115.1980    34.0280 h1         1 SRJ       0.046700
     36 H17         50.4390   113.5890    33.2680 ho         1 SRJ       0.456000
     37 H18         48.5850   115.6250    31.0430 h1         1 SRJ       0.062700
     38 H19         45.2380   117.2820    31.1400 hc         1 SRJ       0.045950
     39 H20         44.3860   116.3200    32.3240 hc         1 SRJ       0.045950
     40 H21         53.2030   116.9960    31.0180 ha         1 SRJ       0.111500
     41 H22         51.5520   119.0830    34.3710 ha         1 SRJ       0.111500
     42 H23         47.3980   117.8730    30.5730 h1         1 SRJ       0.036200
     43 H24         49.0510   117.8270    31.1640 h1         1 SRJ       0.036200
     44 H25         48.4560   119.5300    32.9380 hc         1 SRJ       0.086700
     45 H26         48.2040   113.0930    31.9270 ho         1 SRJ       0.468000
     46 H6          47.0450   116.1150    34.8510 hc         1 SRJ       0.045950
@<TRIPOS>BOND
     1     1     2 1   
     2     1    19 1   
     3     1    22 1   
     4     1    23 1   
     5     2    19 1   
     6     2    24 1   
     7     2    25 1   
     8     3     4 1   
     9     3    10 1   
    10     3    14 1   
    11     3    26 1   
    12     4     5 1   
    13     4    27 1   
    14     4    46 1   
    15     5    20 1   
    16     5    28 1   
    17     5    29 1   
    18     6    14 1   
    19     6    20 1   
    20     6    30 1   
    21     6    31 1   
    22     7    15 ar  
    23     7    16 ar  
    24     7    32 1   
    25     8    16 ar  
    26     8    17 ar  
    27     8    33 1   
    28     9    15 ar  
    29     9    17 ar  
    30     9    34 1   
    31    10    13 1   
    32    10    18 1   
    33    11    12 1   
    34    11    13 1   
    35    11    15 1   
    36    11    35 1   
    37    12    36 1   
    38    13    20 1   
    39    13    37 1   
    40    14    38 1   
    41    14    39 1   
    42    16    40 1   
    43    17    41 1   
    44    18    19 1   
    45    18    42 1   
    46    18    43 1   
    47    19    44 1   
    48    20    21 1   
    49    21    45 1   
@<TRIPOS>SUBSTRUCTURE
     1 SRJ         1 TEMP              0 ****  ****    0 ROOT
