@<TRIPOS>MOLECULE
SRJ
   46    49     1     0     0
SMALL
No Charge or Current Charge


@<TRIPOS>ATOM
      1 C4          47.8590   120.6730    31.3320 cx         1 SRJ      -0.133900
      2 C5          46.4960   120.2170    31.7970 cx         1 SRJ      -0.133900
      3 C6          46.1060   116.9080    32.8280 c6         1 SRJ       0.190500
      4 C7          45.8560   115.9270    34.0140 c6         1 SRJ      -0.089900
      5 C8          46.3650   114.4950    33.6590 c6         1 SRJ      -0.086400
      6 C10         45.9040   114.9320    31.2170 c6         1 SRJ      -0.086400
      7 C13         51.2970   116.2490    31.6310 ca         1 SRJ      -0.089500
      8 C15         52.7050   118.0420    32.4860 ca         1 SRJ      -0.106000
      9 C17         50.9480   117.1000    33.8840 ca         1 SRJ      -0.089500
     10 N           47.5820   116.9630    32.5760 n3         1 SRJ      -0.748600
     11 C           49.4260   115.2370    33.0470 c3         1 SRJ       0.219600
     12 O           49.9130   113.9070    32.7860 oh         1 SRJ      -0.680000
     13 C1          48.1460   115.6050    32.1930 c6         1 SRJ       0.169500
     14 C11         45.3680   116.3550    31.5710 c6         1 SRJ      -0.089900
     15 C12         50.5870   116.2110    32.8500 ca         1 SRJ      -0.119300
     16 C14         52.3520   117.1610    31.4510 ca         1 SRJ      -0.118500
     17 C16         52.0030   118.0110    33.7020 ca         1 SRJ      -0.118500
     18 C2          48.0440   118.0670    31.6960 c3         1 SRJ       0.215800
     19 C3          47.7340   119.4620    32.2280 cx         1 SRJ      -0.122700
     20 C9          47.0040   114.5040    32.2380 c6         1 SRJ       0.176000
     21 O1          47.4930   113.2020    31.9040 oh         1 SRJ      -0.658000
     22 H1          48.1170   120.5120    30.2870 hc         1 SRJ       0.069700
     23 H2          48.2650   121.5840    31.7650 hc         1 SRJ       0.069700
     24 H3          45.9860   120.8200    32.5440 hc         1 SRJ       0.069700
     25 H4          45.8410   119.7500    31.0650 hc         1 SRJ       0.069700
     26 H5          45.7020   117.8950    33.0960 h1         1 SRJ       0.069700
     27 H7          44.7860   115.8980    34.2580 hc         1 SRJ       0.045950
     28 H8          45.5290   113.7820    33.6930 hc         1 SRJ       0.050950
     29 H9          47.0890   114.1550    34.4110 hc         1 SRJ       0.050950
     30 H10         45.0780   114.2080    31.2190 hc         1 SRJ       0.050950
     31 H11         46.3150   114.9330    30.1980 hc         1 SRJ       0.050950
     32 H12         51.0290   115.5750    30.8210 ha         1 SRJ       0.119000
     33 H13         53.5210   118.7490    32.3460 ha         1 SRJ       0.111000
     34 H14         50.4050   117.0910    34.8270 ha         1 SRJ       0.119000
     35 H16         49.1210   115.2940    34.1000 h1         1 SRJ       0.046700
     36 H17         50.8010   113.8570    33.2060 ho         1 SRJ       0.456000
     37 H18         48.4850   115.6440    31.1460 h1         1 SRJ       0.062700
     38 H19         45.4960   117.0350    30.7180 hc         1 SRJ       0.045950
     39 H20         44.2880   116.3100    31.7660 hc         1 SRJ       0.045950
     40 H21         52.8930   117.1850    30.5080 ha         1 SRJ       0.111500
     41 H22         52.2730   118.6950    34.5030 ha         1 SRJ       0.111500
     42 H23         47.6130   117.9580    30.6920 h1         1 SRJ       0.036200
     43 H24         49.1320   118.0090    31.5710 h1         1 SRJ       0.036200
     44 H25         48.0590   119.5890    33.2580 hc         1 SRJ       0.086700
     45 H26         48.4460   113.2260    32.1910 ho         1 SRJ       0.468000
     46 H6          46.3690   116.2960    34.9130 hc         1 SRJ       0.045950
@<TRIPOS>BOND
     1     1     2 1   
     2     1    19 1   
     3     1    22 1   
     4     1    23 1   
     5     2    19 1   
     6     2    24 1   
     7     2    25 1   
     8     3     4 1   
     9     3    10 1   
    10     3    14 1   
    11     3    26 1   
    12     4     5 1   
    13     4    27 1   
    14     4    46 1   
    15     5    20 1   
    16     5    28 1   
    17     5    29 1   
    18     6    14 1   
    19     6    20 1   
    20     6    30 1   
    21     6    31 1   
    22     7    15 ar  
    23     7    16 ar  
    24     7    32 1   
    25     8    16 ar  
    26     8    17 ar  
    27     8    33 1   
    28     9    15 ar  
    29     9    17 ar  
    30     9    34 1   
    31    10    13 1   
    32    10    18 1   
    33    11    12 1   
    34    11    13 1   
    35    11    15 1   
    36    11    35 1   
    37    12    36 1   
    38    13    20 1   
    39    13    37 1   
    40    14    38 1   
    41    14    39 1   
    42    16    40 1   
    43    17    41 1   
    44    18    19 1   
    45    18    42 1   
    46    18    43 1   
    47    19    44 1   
    48    20    21 1   
    49    21    45 1   
@<TRIPOS>SUBSTRUCTURE
     1 SRJ         1 TEMP              0 ****  ****    0 ROOT
