@<TRIPOS>MOLECULE
SRK
   28    29     1     0     0
SMALL
abcg2


@<TRIPOS>ATOM
      1 C02         23.1090    67.5070    73.1510 c          1 SRK       0.716000
      2 C04         23.4360    67.3500    71.6520 c3         1 SRK      -0.200400
      3 C05         24.5400    66.3550    71.3400 c3         1 SRK      -0.111400
      4 C06         25.8960    66.8020    71.8500 c          1 SRK       0.629100
      5 C09         26.6520    64.4320    71.4810 c5         1 SRK       0.104000
      6 C10         28.0660    63.8270    71.4140 c5         1 SRK      -0.037100
      7 C11         28.9110    64.8280    72.1530 ca         1 SRK      -0.155300
      8 C12         30.2280    64.7340    72.5640 ca         1 SRK      -0.080000
      9 C13         30.8220    65.8190    73.2130 ca         1 SRK      -0.162000
     10 C14         30.0870    66.9780    73.4380 ca         1 SRK      -0.091000
     11 C15         28.7570    67.0870    73.0300 ca         1 SRK      -0.119000
     12 C16         28.1780    65.9970    72.3860 ca         1 SRK       0.002000
     13 N08         26.8620    65.8400    71.9020 n          1 SRK      -0.233400
     14 O01         23.5500    66.6380    73.9460 o          1 SRK      -0.740500
     15 O03         22.3920    68.4960    73.4600 o          1 SRK      -0.740500
     16 O07         26.1220    67.9680    72.1730 o          1 SRK      -0.576100
     17 H1          23.6750    68.3350    71.2490 hc         1 SRK       0.032700
     18 H2          22.5170    67.0260    71.1540 hc         1 SRK       0.032700
     19 H3          24.2960    65.3820    71.7660 hc         1 SRK       0.037700
     20 H4          24.6270    66.2080    70.2580 hc         1 SRK       0.037700
     21 H7          28.0990    62.8340    71.8610 hc         1 SRK       0.046700
     22 H8          28.4030    63.7310    70.3790 hc         1 SRK       0.046700
     23 H9          30.7930    63.8270    72.3830 ha         1 SRK       0.098000
     24 H10         31.8520    65.7560    73.5400 ha         1 SRK       0.099000
     25 H11         30.5500    67.8170    73.9440 ha         1 SRK       0.103000
     26 H12         28.1920    67.9860    73.2080 ha         1 SRK       0.158000
     27 H5          26.1410    64.3980    70.5230 h1         1 SRK       0.052700
     28 H6          26.0360    63.9210    72.2230 h1         1 SRK       0.052700
@<TRIPOS>BOND
     1     1     2 1   
     2     1    14 1   
     3     1    15 1   
     4     2     3 1   
     5     2    17 1   
     6     2    18 1   
     7     3     4 1   
     8     3    19 1   
     9     3    20 1   
    10     4    13 1   
    11     4    16 2   
    12     5     6 1   
    13     5    13 1   
    14     5    27 1   
    15     5    28 1   
    16     6     7 1   
    17     6    21 1   
    18     6    22 1   
    19     7     8 ar  
    20     7    12 ar  
    21     8     9 ar  
    22     8    23 1   
    23     9    10 ar  
    24     9    24 1   
    25    10    11 ar  
    26    10    25 1   
    27    11    12 ar  
    28    11    26 1   
    29    12    13 1   
@<TRIPOS>SUBSTRUCTURE
     1 SRK         1 TEMP              0 ****  ****    0 ROOT
