@<TRIPOS>MOLECULE
SRK
   28    29     1     0     0
SMALL
No Charge or Current Charge


@<TRIPOS>ATOM
      1 C02         22.8100    67.3220    73.1240 c          1 SRK       0.716000
      2 C04         23.2830    67.3670    71.6590 c3         1 SRK      -0.200400
      3 C05         24.4660    66.3760    71.4360 c3         1 SRK      -0.111400
      4 C06         25.8780    66.8280    71.9060 c          1 SRK       0.629100
      5 C09         26.6920    64.4740    71.4290 c5         1 SRK       0.104000
      6 C10         28.1090    63.7830    71.5680 c5         1 SRK      -0.037100
      7 C11         28.9560    64.8760    72.1880 ca         1 SRK      -0.155300
      8 C12         30.3120    64.7800    72.5380 ca         1 SRK      -0.080000
      9 C13         30.9490    65.8990    73.1090 ca         1 SRK      -0.162000
     10 C14         30.2290    67.0930    73.3230 ca         1 SRK      -0.091000
     11 C15         28.8680    67.1750    72.9670 ca         1 SRK      -0.119000
     12 C16         28.2510    66.0450    72.3960 ca         1 SRK       0.002000
     13 N08         26.9170    65.8540    71.9490 n          1 SRK      -0.233400
     14 O01         22.0010    66.4630    73.4380 o          1 SRK      -0.740500
     15 O03         23.2950    68.1120    73.9180 o          1 SRK      -0.740500
     16 O07         26.0890    67.9970    72.2050 o          1 SRK      -0.576100
     17 H1          23.6360    68.3670    71.3830 hc         1 SRK       0.032700
     18 H2          22.4820    66.9970    71.0080 hc         1 SRK       0.032700
     19 H3          24.2320    65.3900    71.8540 hc         1 SRK       0.037700
     20 H4          24.5600    66.1380    70.3700 hc         1 SRK       0.037700
     21 H7          28.0600    62.8910    72.2030 hc         1 SRK       0.046700
     22 H8          28.4980    63.4690    70.5930 hc         1 SRK       0.046700
     23 H9          30.8630    63.8570    72.3720 ha         1 SRK       0.098000
     24 H10         31.9990    65.8420    73.3860 ha         1 SRK       0.099000
     25 H11         30.7260    67.9540    73.7660 ha         1 SRK       0.103000
     26 H12         28.3270    68.1000    73.1430 ha         1 SRK       0.158000
     27 H5          26.3590    64.4890    70.3830 h1         1 SRK       0.052700
     28 H6          25.9420    63.9400    72.0270 h1         1 SRK       0.052700
@<TRIPOS>BOND
     1     1     2 1   
     2     1    14 1   
     3     1    15 1   
     4     2     3 1   
     5     2    17 1   
     6     2    18 1   
     7     3     4 1   
     8     3    19 1   
     9     3    20 1   
    10     4    13 1   
    11     4    16 2   
    12     5     6 1   
    13     5    13 1   
    14     5    27 1   
    15     5    28 1   
    16     6     7 1   
    17     6    21 1   
    18     6    22 1   
    19     7     8 ar  
    20     7    12 ar  
    21     8     9 ar  
    22     8    23 1   
    23     9    10 ar  
    24     9    24 1   
    25    10    11 ar  
    26    10    25 1   
    27    11    12 ar  
    28    11    26 1   
    29    12    13 1   
@<TRIPOS>SUBSTRUCTURE
     1 SRK         1 TEMP              0 ****  ****    0 ROOT
