@<TRIPOS>MOLECULE
SRL
   75    75     1     0     0
SMALL
abcg2


@<TRIPOS>ATOM
      1 C1           1.0210     0.1490    -3.1380 ca         1 SRL      -0.142300
      2 C2          -0.0280     0.3240    -4.0680 ca         1 SRL       0.195100
      3 C3          -1.3540     0.5980    -3.6680 ca         1 SRL      -0.142300
      4 C4          -1.5890     0.6770    -2.3050 ca         1 SRL      -0.019000
      5 C5          -0.5950     0.4690    -1.3480 ca         1 SRL      -0.174800
      6 C6           0.7040     0.2290    -1.7940 ca         1 SRL      -0.019000
      7 C7          -1.0090     0.5590     0.0390 ce         1 SRL       0.114800
      8 C8          -0.4920     0.0720     1.1940 cf         1 SRL      -0.620200
      9 P9          -1.4230     0.5020     2.6750 py         1 SRL       1.286400
     10 P10          0.9080    -1.0520     1.2760 py         1 SRL       1.286400
     11 O11          0.3210     0.2280    -5.3610 oh         1 SRL      -0.537100
     12 C12          2.4660    -0.1270    -3.5750 c3         1 SRL       0.012800
     13 C13         -2.5020     0.8100    -4.6680 c3         1 SRL       0.012800
     14 C14          3.3920    -0.2980    -2.3640 c3         1 SRL      -0.088100
     15 C15          2.5530    -1.4360    -4.3760 c3         1 SRL      -0.088100
     16 C16          3.0260     1.0490    -4.3900 c3         1 SRL      -0.088100
     17 C17         -3.8290     1.0820    -3.9500 c3         1 SRL      -0.088100
     18 C18         -2.2410     2.0400    -5.5550 c3         1 SRL      -0.088100
     19 C19         -2.7310    -0.4530    -5.5200 c3         1 SRL      -0.088100
     20 O20         -2.5620     1.4150     2.3930 o          1 SRL      -0.584500
     21 O21         -1.8600    -0.8470     3.4170 os         1 SRL      -0.624900
     22 C22         -2.7430    -1.7760     2.7770 c3         1 SRL       0.225350
     23 C23         -2.8690    -2.9940     3.6590 c3         1 SRL      -0.096100
     24 O24         -0.3010     1.0710     3.6500 os         1 SRL      -0.624900
     25 C25         -0.5270     1.2990     5.0500 c3         1 SRL       0.225350
     26 C26          0.7320     1.8840     5.6400 c3         1 SRL      -0.096100
     27 O27          0.9190    -2.1460     0.2780 o          1 SRL      -0.584500
     28 O28          2.2630    -0.2010     1.1400 os         1 SRL      -0.624900
     29 C29          2.5460     0.9670     1.9240 c3         1 SRL       0.225350
     30 C30          3.8680     1.5310     1.4670 c3         1 SRL      -0.096100
     31 O31          0.8310    -1.5040     2.8010 os         1 SRL      -0.624900
     32 C32          1.7330    -2.4780     3.3470 c3         1 SRL       0.225350
     33 C33          1.6140    -2.4320     4.8500 c3         1 SRL      -0.096100
     34 HC4         -2.5860     0.8960    -1.9500 ha         1 SRL       0.123500
     35 HC6          1.5000     0.1560    -1.0760 ha         1 SRL       0.123500
     36 HC7         -1.9340     1.1180     0.1520 ha         1 SRL       0.187000
     37 H11         -0.4150     0.4010    -5.9530 ho         1 SRL       0.473000
     38 H141         4.4020    -0.5070    -2.7190 hc         1 SRL       0.037811
     39 H142         3.4470     0.6050    -1.7540 hc         1 SRL       0.037811
     40 H143         3.0880    -1.1260    -1.7200 hc         1 SRL       0.037811
     41 H151         2.1500    -2.2700    -3.7980 hc         1 SRL       0.037811
     42 H152         2.0220    -1.3960    -5.3230 hc         1 SRL       0.037811
     43 H153         3.5990    -1.6630    -4.5950 hc         1 SRL       0.037811
     44 H161         3.0360     1.9600    -3.7900 hc         1 SRL       0.037811
     45 H162         4.0580     0.8370    -4.6810 hc         1 SRL       0.037811
     46 H163         2.4650     1.2510    -5.2990 hc         1 SRL       0.037811
     47 H171        -4.1350     0.2510    -3.3110 hc         1 SRL       0.037811
     48 H172        -3.7970     1.9890    -3.3440 hc         1 SRL       0.037811
     49 H173        -4.6130     1.2220    -4.6960 hc         1 SRL       0.037811
     50 H181        -1.3450     1.9820    -6.1740 hc         1 SRL       0.037811
     51 H182        -3.0780     2.1870    -6.2400 hc         1 SRL       0.037811
     52 H183        -2.1470     2.9380    -4.9440 hc         1 SRL       0.037811
     53 H191        -3.6090    -0.3170    -6.1520 hc         1 SRL       0.037811
     54 H192        -1.9120    -0.7110    -6.1910 hc         1 SRL       0.037811
     55 H193        -2.9060    -1.3200    -4.8820 hc         1 SRL       0.037811
     56 H221        -2.3400    -2.0570     1.8000 h1         1 SRL       0.037825
     57 H222        -3.7180    -1.3110     2.6130 h1         1 SRL       0.037825
     58 H231        -3.5300    -3.7190     3.1840 hc         1 SRL       0.044533
     59 H232        -1.9000    -3.4690     3.8130 hc         1 SRL       0.044533
     60 H233        -3.2920    -2.7400     4.6310 hc         1 SRL       0.044533
     61 H251        -1.3690     1.9830     5.1820 h1         1 SRL       0.037825
     62 H252        -0.7760     0.3550     5.5380 h1         1 SRL       0.037825
     63 H261         0.5740     2.0910     6.6980 hc         1 SRL       0.044533
     64 H262         1.5690     1.1890     5.5550 hc         1 SRL       0.044533
     65 H263         1.0050     2.8180     5.1490 hc         1 SRL       0.044533
     66 H291         1.7480     1.7020     1.7930 h1         1 SRL       0.037825
     67 H292         2.5850     0.7010     2.9820 h1         1 SRL       0.037825
     68 H301         4.1100     2.4120     2.0610 hc         1 SRL       0.044533
     69 H302         4.6750     0.8090     1.5950 hc         1 SRL       0.044533
     70 H303         3.8330     1.8310     0.4190 hc         1 SRL       0.044533
     71 H321         1.4710    -3.4660     2.9640 h1         1 SRL       0.037825
     72 H322         2.7590    -2.2600     3.0380 h1         1 SRL       0.037825
     73 H331         2.2760    -3.1780     5.2900 hc         1 SRL       0.044533
     74 H332         1.8990    -1.4540     5.2400 hc         1 SRL       0.044533
     75 H333         0.5960    -2.6500     5.1720 hc         1 SRL       0.044533
@<TRIPOS>BOND
     1     1     2 ar  
     2     1     6 ar  
     3     1    12 1   
     4     2     3 ar  
     5     2    11 1   
     6     3     4 ar  
     7     3    13 1   
     8     4     5 ar  
     9     4    34 1   
    10     5     6 ar  
    11     5     7 1   
    12     6    35 1   
    13     7     8 2   
    14     7    36 1   
    15     8     9 1   
    16     8    10 1   
    17     9    20 2   
    18     9    21 1   
    19     9    24 1   
    20    10    27 2   
    21    10    28 1   
    22    10    31 1   
    23    11    37 1   
    24    12    14 1   
    25    12    15 1   
    26    12    16 1   
    27    13    17 1   
    28    13    18 1   
    29    13    19 1   
    30    14    38 1   
    31    14    39 1   
    32    14    40 1   
    33    15    41 1   
    34    15    42 1   
    35    15    43 1   
    36    16    44 1   
    37    16    45 1   
    38    16    46 1   
    39    17    47 1   
    40    17    48 1   
    41    17    49 1   
    42    18    50 1   
    43    18    51 1   
    44    18    52 1   
    45    19    53 1   
    46    19    54 1   
    47    19    55 1   
    48    21    22 1   
    49    22    23 1   
    50    22    56 1   
    51    22    57 1   
    52    23    58 1   
    53    23    59 1   
    54    23    60 1   
    55    24    25 1   
    56    25    26 1   
    57    25    61 1   
    58    25    62 1   
    59    26    63 1   
    60    26    64 1   
    61    26    65 1   
    62    28    29 1   
    63    29    30 1   
    64    29    66 1   
    65    29    67 1   
    66    30    68 1   
    67    30    69 1   
    68    30    70 1   
    69    31    32 1   
    70    32    33 1   
    71    32    71 1   
    72    32    72 1   
    73    33    73 1   
    74    33    74 1   
    75    33    75 1   
@<TRIPOS>SUBSTRUCTURE
     1 SRL         1 TEMP              0 ****  ****    0 ROOT
