@<TRIPOS>MOLECULE
SRL
   75    75     1     0     0
SMALL
No Charge or Current Charge


@<TRIPOS>ATOM
      1 C1           1.0800     0.5500    -3.0850 ca         1 SRL      -0.142300
      2 C2           0.0290     0.3080    -4.0240 ca         1 SRL       0.195100
      3 C3          -1.3510     0.3810    -3.6590 ca         1 SRL      -0.142300
      4 C4          -1.6470     0.6980    -2.3120 ca         1 SRL      -0.019000
      5 C5          -0.6300     0.9320    -1.3500 ca         1 SRL      -0.174800
      6 C6           0.7080     0.8690    -1.7550 ca         1 SRL      -0.019000
      7 C7          -0.9530     1.2720     0.0920 ce         1 SRL       0.114800
      8 C8          -0.5510     0.6470     1.2330 cf         1 SRL      -0.620200
      9 P9          -1.1490     1.0600     2.8250 py         1 SRL       1.286400
     10 P10          0.4510    -0.8020     1.3290 py         1 SRL       1.286400
     11 O11          0.3490     0.0030    -5.3120 oh         1 SRL      -0.537100
     12 C12          2.6020     0.4720    -3.4810 c3         1 SRL       0.012800
     13 C13         -2.5200     0.1230    -4.6820 c3         1 SRL       0.012800
     14 C14          3.5600     0.7600    -2.2860 c3         1 SRL      -0.088100
     15 C15          2.9650    -0.9560    -3.9840 c3         1 SRL      -0.088100
     16 C16          2.9400     1.5310    -4.5710 c3         1 SRL      -0.088100
     17 C17         -3.9340     0.2640    -4.0390 c3         1 SRL      -0.088100
     18 C18         -2.4750     1.1610    -5.8430 c3         1 SRL      -0.088100
     19 C19         -2.4490    -1.3280    -5.2440 c3         1 SRL      -0.088100
     20 O20         -1.9990     2.2790     2.8120 o          1 SRL      -0.584500
     21 O21         -1.9080    -0.2580     3.3560 os         1 SRL      -0.624900
     22 C22         -3.0630    -0.7420     2.6680 c3         1 SRL       0.225350
     23 C23         -3.5030    -2.0320     3.3740 c3         1 SRL      -0.096100
     24 O24          0.1200     1.1610     3.8140 os         1 SRL      -0.624900
     25 C25          0.0010     0.7940     5.1920 c3         1 SRL       0.225350
     26 C26          1.3550     1.0740     5.8590 c3         1 SRL      -0.096100
     27 O27          0.0450    -1.7970     0.3010 o          1 SRL      -0.584500
     28 O28          1.9490    -0.2430     1.0920 os         1 SRL      -0.624900
     29 C29          2.5450     0.6820     2.0070 c3         1 SRL       0.225350
     30 C30          3.9790     0.9510     1.5300 c3         1 SRL      -0.096100
     31 O31          0.5890    -1.4140     2.8110 os         1 SRL      -0.624900
     32 C32          1.3420    -2.6080     3.0200 c3         1 SRL       0.225350
     33 C33          1.2920    -2.9190     4.5220 c3         1 SRL      -0.096100
     34 HC4         -2.6670     0.7690    -1.9510 ha         1 SRL       0.123500
     35 HC6          1.4510     1.0890    -1.0000 ha         1 SRL       0.123500
     36 HC7         -1.6570     2.1050     0.1800 ha         1 SRL       0.187000
     37 H11         -0.4890    -0.1240    -5.7960 ho         1 SRL       0.473000
     38 H141         4.6100     0.6900    -2.5950 hc         1 SRL       0.037811
     39 H142         3.4080     1.7710    -1.8900 hc         1 SRL       0.037811
     40 H143         3.4130     0.0340    -1.4770 hc         1 SRL       0.037811
     41 H151         2.6620    -1.7120    -3.2490 hc         1 SRL       0.037811
     42 H152         2.4890    -1.2030    -4.9370 hc         1 SRL       0.037811
     43 H153         4.0460    -1.0540    -4.1400 hc         1 SRL       0.037811
     44 H161         2.6280     2.5300    -4.2450 hc         1 SRL       0.037811
     45 H162         4.0190     1.5620    -4.7650 hc         1 SRL       0.037811
     46 H163         2.4530     1.3210    -5.5280 hc         1 SRL       0.037811
     47 H171        -4.0780    -0.4620    -3.2290 hc         1 SRL       0.037811
     48 H172        -4.0940     1.2740    -3.6430 hc         1 SRL       0.037811
     49 H173        -4.7240     0.0800    -4.7780 hc         1 SRL       0.037811
     50 H181        -1.6000     1.0480    -6.4910 hc         1 SRL       0.037811
     51 H182        -3.3560     1.0620    -6.4890 hc         1 SRL       0.037811
     52 H183        -2.4670     2.1820    -5.4440 hc         1 SRL       0.037811
     53 H191        -3.3290    -1.5510    -5.8610 hc         1 SRL       0.037811
     54 H192        -1.5740    -1.5040    -5.8760 hc         1 SRL       0.037811
     55 H193        -2.4240    -2.0550    -4.4240 hc         1 SRL       0.037811
     56 H221        -2.8340    -0.9630     1.6170 h1         1 SRL       0.037825
     57 H222        -3.8770    -0.0050     2.7010 h1         1 SRL       0.037825
     58 H231        -4.3880    -2.4510     2.8820 hc         1 SRL       0.044533
     59 H232        -2.7020    -2.7800     3.3420 hc         1 SRL       0.044533
     60 H233        -3.7540    -1.8310     4.4230 hc         1 SRL       0.044533
     61 H251        -0.7820     1.3840     5.6880 h1         1 SRL       0.037825
     62 H252        -0.2420    -0.2710     5.3000 h1         1 SRL       0.037825
     63 H261         1.3100     0.8230     6.9250 hc         1 SRL       0.044533
     64 H262         2.1450     0.4710     5.3980 hc         1 SRL       0.044533
     65 H263         1.6210     2.1340     5.7640 hc         1 SRL       0.044533
     66 H291         1.9880     1.6280     2.0320 h1         1 SRL       0.037825
     67 H292         2.5790     0.2650     3.0210 h1         1 SRL       0.037825
     68 H301         4.4980     1.5990     2.2460 hc         1 SRL       0.044533
     69 H302         4.5410     0.0140     1.4430 hc         1 SRL       0.044533
     70 H303         3.9740     1.4540     0.5570 hc         1 SRL       0.044533
     71 H321         0.9110    -3.4470     2.4570 h1         1 SRL       0.037825
     72 H322         2.3860    -2.4760     2.7060 h1         1 SRL       0.037825
     73 H331         1.8410    -3.8420     4.7370 hc         1 SRL       0.044533
     74 H332         1.7460    -2.1050     5.0990 hc         1 SRL       0.044533
     75 H333         0.2550    -3.0480     4.8540 hc         1 SRL       0.044533
@<TRIPOS>BOND
     1     1     2 ar  
     2     1     6 ar  
     3     1    12 1   
     4     2     3 ar  
     5     2    11 1   
     6     3     4 ar  
     7     3    13 1   
     8     4     5 ar  
     9     4    34 1   
    10     5     6 ar  
    11     5     7 1   
    12     6    35 1   
    13     7     8 2   
    14     7    36 1   
    15     8     9 1   
    16     8    10 1   
    17     9    20 2   
    18     9    21 1   
    19     9    24 1   
    20    10    27 2   
    21    10    28 1   
    22    10    31 1   
    23    11    37 1   
    24    12    14 1   
    25    12    15 1   
    26    12    16 1   
    27    13    17 1   
    28    13    18 1   
    29    13    19 1   
    30    14    38 1   
    31    14    39 1   
    32    14    40 1   
    33    15    41 1   
    34    15    42 1   
    35    15    43 1   
    36    16    44 1   
    37    16    45 1   
    38    16    46 1   
    39    17    47 1   
    40    17    48 1   
    41    17    49 1   
    42    18    50 1   
    43    18    51 1   
    44    18    52 1   
    45    19    53 1   
    46    19    54 1   
    47    19    55 1   
    48    21    22 1   
    49    22    23 1   
    50    22    56 1   
    51    22    57 1   
    52    23    58 1   
    53    23    59 1   
    54    23    60 1   
    55    24    25 1   
    56    25    26 1   
    57    25    61 1   
    58    25    62 1   
    59    26    63 1   
    60    26    64 1   
    61    26    65 1   
    62    28    29 1   
    63    29    30 1   
    64    29    66 1   
    65    29    67 1   
    66    30    68 1   
    67    30    69 1   
    68    30    70 1   
    69    31    32 1   
    70    32    33 1   
    71    32    71 1   
    72    32    72 1   
    73    33    73 1   
    74    33    74 1   
    75    33    75 1   
@<TRIPOS>SUBSTRUCTURE
     1 SRL         1 TEMP              0 ****  ****    0 ROOT
