@<TRIPOS>MOLECULE
SRN
  123   127     1     0     0
SMALL
abcg2


@<TRIPOS>ATOM
      1 O11          2.3640    -0.5910    12.9750 o          1 SRN      -0.745000
      2 C45          2.8350     0.4880    12.5630 c          1 SRN       0.716000
      3 O10          2.9900     1.5290    13.2380 o          1 SRN      -0.745000
      4 C44          3.2850     0.5670    11.0950 c3         1 SRN      -0.202400
      5 C43          3.0090    -0.6540    10.2320 c3         1 SRN      -0.054400
      6 C42          3.5440    -0.4930     8.8150 c3         1 SRN      -0.081400
      7 C41          3.2690    -1.6930     7.9190 c3         1 SRN      -0.066400
      8 C39          3.9160    -1.5850     6.5320 c3         1 SRN      -0.036500
      9 C40          3.6950    -2.8650     5.7260 c3         1 SRN      -0.082100
     10 C38          3.3690    -0.4110     5.7770 c2         1 SRN      -0.154200
     11 C36          3.9960     0.7240     5.4710 c2         1 SRN      -0.137400
     12 C37          5.4060     1.0650     5.8480 c3         1 SRN      -0.045900
     13 C32          3.3000     1.8140     4.6970 c6         1 SRN       0.199500
     14 C33          3.5730     1.7450     3.1890 c6         1 SRN       0.179500
     15 C47          2.6430     2.6510     2.4460 c2         1 SRN      -0.230200
     16 C46          1.5760     3.1820     3.0260 c2         1 SRN      -0.222200
     17 O1           3.3530     0.4370     2.6480 os         1 SRN      -0.429100
     18 O7           1.9150     1.7910     4.9540 os         1 SRN      -0.431000
     19 C31          1.2010     2.8970     4.4430 c6         1 SRN       0.200500
     20 C30          1.3610     4.1440     5.3380 c3         1 SRN      -0.071200
     21 C29          0.5930     5.3200     4.8160 c2         1 SRN      -0.216200
     22 C28          1.1650     6.3820     4.2560 c2         1 SRN      -0.222200
     23 C27          0.4390     7.5290     3.6240 c3         1 SRN      -0.034200
     24 C26          0.4470     7.4360     2.0850 c3         1 SRN      -0.038200
     25 C25          1.8330     7.3310     1.5280 c2         1 SRN      -0.200200
     26 C24          2.3630     6.1830     1.1230 c2         1 SRN      -0.222200
     27 C23          3.7880     5.9540     0.7240 c3         1 SRN       0.190500
     28 O6           3.8160     4.8960    -0.2110 oh         1 SRN      -0.674000
     29 C22          4.6680     5.6890     1.9720 c3         1 SRN       0.133300
     30 O5           4.6830     6.8250     2.7950 oh         1 SRN      -0.698000
     31 C21          6.0900     5.2530     1.5840 c6         1 SRN       0.131300
     32 O9           5.9900     3.8980     1.1590 os         1 SRN      -0.476000
     33 C20          7.1080     5.3690     2.7070 c6         1 SRN      -0.091400
     34 C19          8.4550     4.8180     2.2550 c6         1 SRN       0.167300
     35 O4           8.9630     5.7080     1.2800 oh         1 SRN      -0.668000
     36 C17          8.3030     3.3910     1.7080 c6         1 SRN      -0.122700
     37 C18          8.0770     2.4010     2.8490 c3         1 SRN      -0.087100
     38 C16          7.2020     3.3650     0.6410 c6         1 SRN       0.187300
     39 C15          6.9120     1.9640     0.1130 c3         1 SRN      -0.048200
     40 C14          5.7500     1.8860    -0.8240 c2         1 SRN      -0.189200
     41 C13          5.8220     1.5900    -2.1170 c2         1 SRN      -0.221200
     42 C12          4.6170     1.4360    -2.9890 c6         1 SRN       0.202500
     43 O8           4.5730     0.0580    -3.3500 os         1 SRN      -0.450000
     44 C35          3.7000    -0.2760    -4.4060 c5         1 SRN       0.149300
     45 C34          4.1440     0.4350    -5.6770 c5         1 SRN      -0.149400
     46 C9           3.6980     1.8340    -5.2860 c5         1 SRN       0.162300
     47 C10          4.6320     2.3790    -4.2030 c6         1 SRN      -0.104700
     48 C11          4.2610     3.7920    -3.7770 c3         1 SRN      -0.082100
     49 O3           2.3820     1.6380    -4.7660 os         1 SRN      -0.455000
     50 C8           2.2850     0.2990    -4.2630 c5         1 SRN       0.162500
     51 C7           1.6530     0.3210    -2.9090 c2         1 SRN      -0.217200
     52 C6           1.9870    -0.4330    -1.8570 ce         1 SRN      -0.171000
     53 C5           1.3560    -0.2570    -0.5640 ce         1 SRN      -0.180000
     54 C4           1.8280    -0.7250     0.6020 cf         1 SRN      -0.166000
     55 C3           2.9870    -1.6060     0.7190 cf         1 SRN      -0.108000
     56 C2           4.0330    -1.5160     1.5530 ce         1 SRN      -0.262200
     57 C1           4.3730    -0.3780     2.4230 c          1 SRN       0.604300
     58 O2           5.4980    -0.1940     2.8290 o          1 SRN      -0.502000
     59 H441         4.3620     0.7800    11.0840 hc         1 SRN       0.014200
     60 H442         2.8240     1.4500    10.6390 hc         1 SRN       0.014200
     61 H431         3.4560    -1.5400    10.6920 hc         1 SRN       0.037200
     62 H432         1.9320    -0.8480    10.1950 hc         1 SRN       0.037200
     63 H421         4.6250    -0.3160     8.8550 hc         1 SRN       0.027700
     64 H422         3.1150     0.4060     8.3600 hc         1 SRN       0.027700
     65 H411         3.6440    -2.6010     8.4040 hc         1 SRN       0.035700
     66 H412         2.1880    -1.8330     7.8050 hc         1 SRN       0.035700
     67 H39          4.9920    -1.4630     6.6830 hc         1 SRN       0.048700
     68 H401         4.1860    -2.8080     4.7530 hc         1 SRN       0.027700
     69 H402         2.6310    -3.0410     5.5520 hc         1 SRN       0.027700
     70 H403         4.0940    -3.7330     6.2530 hc         1 SRN       0.027700
     71 H38          2.3320    -0.5250     5.4710 ha         1 SRN       0.180000
     72 H371         5.9620     0.2150     6.2380 hc         1 SRN       0.039033
     73 H372         5.4150     1.8460     6.6140 hc         1 SRN       0.039033
     74 H373         5.9650     1.4530     4.9950 hc         1 SRN       0.039033
     75 H32          3.7310     2.7760     5.0190 h1         1 SRN       0.044700
     76 H33          4.6060     2.0520     3.0000 h1         1 SRN       0.076700
     77 H47          2.8830     2.8780     1.4130 ha         1 SRN       0.189000
     78 H46          0.9320     3.8580     2.4780 ha         1 SRN       0.182000
     79 H31          0.1470     2.5990     4.4660 h1         1 SRN       0.079700
     80 H301         2.4200     4.4090     5.4060 hc         1 SRN       0.062700
     81 H302         1.0240     3.8810     6.3450 hc         1 SRN       0.062700
     82 H29         -0.4920     5.2600     4.8720 ha         1 SRN       0.164000
     83 H28          2.2490     6.4100     4.1880 ha         1 SRN       0.182000
     84 H271        -0.5980     7.5600     3.9650 hc         1 SRN       0.043200
     85 H272         0.9030     8.4720     3.9280 hc         1 SRN       0.043200
     86 H261        -0.0640     8.3130     1.6790 hc         1 SRN       0.042700
     87 H262        -0.1320     6.5570     1.7880 hc         1 SRN       0.042700
     88 H25          2.4340     8.2370     1.5320 ha         1 SRN       0.163000
     89 H24          1.7410     5.2920     1.1310 ha         1 SRN       0.181000
     90 H23          4.1930     6.8700     0.2590 h1         1 SRN       0.028700
     91 HO6          4.5890     4.3410    -0.0430 ho         1 SRN       0.471000
     92 H22          4.2150     4.8910     2.5710 h1         1 SRN       0.101700
     93 HO5          5.0140     7.5770     2.2910 ho         1 SRN       0.499000
     94 H21          6.4340     5.8710     0.7380 h1         1 SRN       0.047700
     95 H201         7.2270     6.4090     3.0110 hc         1 SRN       0.069200
     96 H202         6.7630     4.8190     3.5870 hc         1 SRN       0.069200
     97 H19          9.1290     4.7840     3.1220 h1         1 SRN       0.041700
     98 HO4          9.7960     5.3530     0.9530 ho         1 SRN       0.441000
     99 H17          9.2440     3.1190     1.2150 hc         1 SRN       0.044700
    100 H181         8.7860     2.5840     3.6580 hc         1 SRN       0.046367
    101 H182         7.0720     2.4710     3.2640 hc         1 SRN       0.046367
    102 H183         8.2200     1.3710     2.5250 hc         1 SRN       0.046367
    103 H16          7.5270     3.9880    -0.2050 h1         1 SRN       0.038700
    104 H151         6.7140     1.2870     0.9480 hc         1 SRN       0.065200
    105 H152         7.8190     1.6020    -0.3780 hc         1 SRN       0.065200
    106 H14          4.7650     2.0290    -0.3850 ha         1 SRN       0.182000
    107 H13          6.7900     1.4140    -2.5840 ha         1 SRN       0.169000
    108 H12          3.7280     1.6750    -2.3900 h1         1 SRN       0.062700
    109 H35          3.6920    -1.3650    -4.4760 h1         1 SRN       0.088700
    110 H341         5.2140     0.3460    -5.8630 hc         1 SRN       0.065200
    111 H342         3.6040     0.0670    -6.5520 hc         1 SRN       0.065200
    112 H9           3.6320     2.5330    -6.1240 h1         1 SRN       0.077700
    113 H1           5.6400     2.3920    -4.6350 hc         1 SRN       0.052700
    114 H111         4.9160     4.1600    -2.9870 hc         1 SRN       0.042033
    115 H112         4.3380     4.4810    -4.6190 hc         1 SRN       0.042033
    116 H113         3.2390     3.8340    -3.3980 hc         1 SRN       0.042033
    117 H8           1.6320    -0.2780    -4.9360 h1         1 SRN       0.056700
    118 H7           0.8400     1.0350    -2.8020 ha         1 SRN       0.183000
    119 H6           2.8110    -1.1330    -1.9290 ha         1 SRN       0.183000
    120 H5           0.4870     0.3930    -0.5340 ha         1 SRN       0.175000
    121 H4           1.3320    -0.4170     1.5130 ha         1 SRN       0.207000
    122 H3           3.0150    -2.4460     0.0300 ha         1 SRN       0.172000
    123 H2           4.8040    -2.2740     1.4970 ha         1 SRN       0.198000
@<TRIPOS>BOND
     1     1     2 1   
     2     2     3 1   
     3     2     4 1   
     4     4     5 1   
     5     4    59 1   
     6     4    60 1   
     7     5     6 1   
     8     5    61 1   
     9     5    62 1   
    10     6     7 1   
    11     6    63 1   
    12     6    64 1   
    13     7     8 1   
    14     7    65 1   
    15     7    66 1   
    16     8     9 1   
    17     8    10 1   
    18     8    67 1   
    19     9    68 1   
    20     9    69 1   
    21     9    70 1   
    22    10    11 2   
    23    10    71 1   
    24    11    12 1   
    25    11    13 1   
    26    12    72 1   
    27    12    73 1   
    28    12    74 1   
    29    13    14 1   
    30    13    18 1   
    31    13    75 1   
    32    14    15 1   
    33    14    17 1   
    34    14    76 1   
    35    15    16 2   
    36    15    77 1   
    37    16    19 1   
    38    16    78 1   
    39    17    57 1   
    40    18    19 1   
    41    19    20 1   
    42    19    79 1   
    43    20    21 1   
    44    20    80 1   
    45    20    81 1   
    46    21    22 2   
    47    21    82 1   
    48    22    23 1   
    49    22    83 1   
    50    23    24 1   
    51    23    84 1   
    52    23    85 1   
    53    24    25 1   
    54    24    86 1   
    55    24    87 1   
    56    25    26 2   
    57    25    88 1   
    58    26    27 1   
    59    26    89 1   
    60    27    28 1   
    61    27    29 1   
    62    27    90 1   
    63    28    91 1   
    64    29    30 1   
    65    29    31 1   
    66    29    92 1   
    67    30    93 1   
    68    31    32 1   
    69    31    33 1   
    70    31    94 1   
    71    32    38 1   
    72    33    34 1   
    73    33    95 1   
    74    33    96 1   
    75    34    35 1   
    76    34    36 1   
    77    34    97 1   
    78    35    98 1   
    79    36    37 1   
    80    36    38 1   
    81    36    99 1   
    82    37   100 1   
    83    37   101 1   
    84    37   102 1   
    85    38    39 1   
    86    38   103 1   
    87    39    40 1   
    88    39   104 1   
    89    39   105 1   
    90    40    41 2   
    91    40   106 1   
    92    41    42 1   
    93    41   107 1   
    94    42    43 1   
    95    42    47 1   
    96    42   108 1   
    97    43    44 1   
    98    44    45 1   
    99    44    50 1   
   100    44   109 1   
   101    45    46 1   
   102    45   110 1   
   103    45   111 1   
   104    46    47 1   
   105    46    49 1   
   106    46   112 1   
   107    47    48 1   
   108    47   113 1   
   109    48   114 1   
   110    48   115 1   
   111    48   116 1   
   112    49    50 1   
   113    50    51 1   
   114    50   117 1   
   115    51    52 2   
   116    51   118 1   
   117    52    53 1   
   118    52   119 1   
   119    53    54 2   
   120    53   120 1   
   121    54    55 1   
   122    54   121 1   
   123    55    56 2   
   124    55   122 1   
   125    56    57 1   
   126    56   123 1   
   127    57    58 2   
@<TRIPOS>SUBSTRUCTURE
     1 SRN         1 TEMP              0 ****  ****    0 ROOT
