@<TRIPOS>MOLECULE
SRN
  123   127     1     0     0
SMALL
No Charge or Current Charge


@<TRIPOS>ATOM
      1 O11         -1.5820    -2.3250    12.4800 o          1 SRN      -0.745000
      2 C45         -1.5080    -1.4080    11.6760 c          1 SRN       0.716000
      3 O10         -2.4440    -0.6740    11.4010 o          1 SRN      -0.745000
      4 C44         -0.1780    -1.2040    10.9260 c3         1 SRN      -0.202400
      5 C43         -0.1620    -2.0460     9.6270 c3         1 SRN      -0.054400
      6 C42          1.1510    -1.9060     8.8260 c3         1 SRN      -0.081400
      7 C41          1.1640    -2.7530     7.5310 c3         1 SRN      -0.066400
      8 C39          2.4920    -2.6790     6.7350 c3         1 SRN      -0.036500
      9 C40          2.4820    -3.6550     5.5390 c3         1 SRN      -0.082100
     10 C38          2.7770    -1.2600     6.2590 c2         1 SRN      -0.154200
     11 C36          3.6190    -0.3430     6.7880 c2         1 SRN      -0.137400
     12 C37          4.4790    -0.5370     8.0310 c3         1 SRN      -0.045900
     13 C32          3.7730     1.0470     6.1570 c6         1 SRN       0.199500
     14 C33          4.8250     1.1120     4.9920 c6         1 SRN       0.179500
     15 C47          4.7110     2.4410     4.2610 c2         1 SRN      -0.230200
     16 C46          3.6340     3.2410     4.3720 c2         1 SRN      -0.222200
     17 O1           4.6380     0.0780     4.0040 os         1 SRN      -0.429100
     18 O7           2.4810     1.5350     5.7030 os         1 SRN      -0.431000
     19 C31          2.4460     2.9190     5.2740 c6         1 SRN       0.200500
     20 C30          2.4450     3.8430     6.5270 c3         1 SRN      -0.071200
     21 C29          2.0770     5.2820     6.2220 c2         1 SRN      -0.216200
     22 C28          2.9470     6.2400     5.8670 c2         1 SRN      -0.222200
     23 C27          2.5880     7.6820     5.5810 c3         1 SRN      -0.034200
     24 C26          2.1150     7.9110     4.1300 c3         1 SRN      -0.038200
     25 C25          3.1330     7.4980     3.0830 c2         1 SRN      -0.200200
     26 C24          2.8300     6.9120     1.9100 c2         1 SRN      -0.222200
     27 C23          3.8000     6.4970     0.8170 c3         1 SRN       0.190500
     28 O6           4.3540     5.2280     1.1540 oh         1 SRN      -0.674000
     29 C22          4.9460     7.5320     0.5540 c3         1 SRN       0.133300
     30 O5           4.3700     8.8470     0.3830 oh         1 SRN      -0.698000
     31 C21          5.8740     7.1690    -0.6610 c6         1 SRN       0.131300
     32 O9           6.3550     5.8100    -0.4970 os         1 SRN      -0.476000
     33 C20          7.0840     8.1390    -0.7900 c6         1 SRN      -0.091400
     34 C19          8.0740     7.6830    -1.8930 c6         1 SRN       0.167300
     35 O4           7.5010     7.9040    -3.1880 oh         1 SRN      -0.668000
     36 C17          8.4540     6.1830    -1.7190 c6         1 SRN      -0.122700
     37 C18          9.4220     5.9750    -0.5120 c3         1 SRN      -0.087100
     38 C16          7.1490     5.3360    -1.6080 c6         1 SRN       0.187300
     39 C15          7.3880     3.8130    -1.4110 c3         1 SRN      -0.048200
     40 C14          6.1720     2.9600    -1.7250 c2         1 SRN      -0.189200
     41 C13          6.1180     2.0240    -2.6880 c2         1 SRN      -0.221200
     42 C12          4.8840     1.1970    -3.0060 c6         1 SRN       0.202500
     43 O8           5.1640    -0.1930    -2.7000 os         1 SRN      -0.450000
     44 C35          4.3640    -1.2470    -3.3280 c5         1 SRN       0.149300
     45 C34          4.4880    -1.1030    -4.8620 c5         1 SRN      -0.149400
     46 C9           3.6420     0.1780    -5.0210 c5         1 SRN       0.162300
     47 C10          4.3970     1.4170    -4.4700 c6         1 SRN      -0.104700
     48 C11          3.5800     2.7330    -4.6100 c3         1 SRN      -0.082100
     49 O3           2.4550    -0.1030    -4.2360 os         1 SRN      -0.455000
     50 C8           2.8130    -1.0050    -3.1570 c5         1 SRN       0.162500
     51 C7           2.3970    -0.3450    -1.8430 c2         1 SRN      -0.217200
     52 C6           2.7950    -0.9460    -0.6990 ce         1 SRN      -0.171000
     53 C5           2.4860    -0.3870     0.6230 ce         1 SRN      -0.180000
     54 C4           2.9770    -0.8120     1.8200 cf         1 SRN      -0.166000
     55 C3           3.8780    -1.9420     2.0380 cf         1 SRN      -0.108000
     56 C2           4.8010    -2.1030     3.0400 ce         1 SRN      -0.262200
     57 C1           5.2060    -1.1590     4.1280 c          1 SRN       0.604300
     58 O2           6.0030    -1.4640     5.0030 o          1 SRN      -0.502000
     59 H441         0.6630    -1.5680    11.5300 hc         1 SRN       0.014200
     60 H442        -0.0730    -0.1590    10.6080 hc         1 SRN       0.014200
     61 H431        -0.3170    -3.1030     9.8810 hc         1 SRN       0.037200
     62 H432        -1.0050    -1.7450     8.9920 hc         1 SRN       0.037200
     63 H421         1.9940    -2.2070     9.4600 hc         1 SRN       0.027700
     64 H422         1.3010    -0.8490     8.5730 hc         1 SRN       0.027700
     65 H411         0.9690    -3.8000     7.7970 hc         1 SRN       0.035700
     66 H412         0.3380    -2.4330     6.8840 hc         1 SRN       0.035700
     67 H39          3.2900    -3.0270     7.3990 hc         1 SRN       0.048700
     68 H401         3.4510    -3.6430     5.0260 hc         1 SRN       0.027700
     69 H402         1.7050    -3.3820     4.8140 hc         1 SRN       0.027700
     70 H403         2.2940    -4.6810     5.8760 hc         1 SRN       0.027700
     71 H38          2.2070    -0.9930     5.3690 ha         1 SRN       0.180000
     72 H371         4.3510    -1.5160     8.5020 hc         1 SRN       0.039033
     73 H372         4.2360     0.2130     8.7920 hc         1 SRN       0.039033
     74 H373         5.5420    -0.4300     7.7890 hc         1 SRN       0.039033
     75 H32          4.1250     1.7280     6.9440 h1         1 SRN       0.044700
     76 H33          5.8370     1.0300     5.4140 h1         1 SRN       0.076700
     77 H47          5.5420     2.7050     3.6070 ha         1 SRN       0.189000
     78 H46          3.5720     4.1760     3.8140 ha         1 SRN       0.182000
     79 H31          1.5070     3.0820     4.7250 h1         1 SRN       0.079700
     80 H301         3.4330     3.8240     7.0010 hc         1 SRN       0.062700
     81 H302         1.7480     3.4460     7.2750 hc         1 SRN       0.062700
     82 H29          1.0130     5.5100     6.3200 ha         1 SRN       0.164000
     83 H28          4.0110     6.0120     5.7690 ha         1 SRN       0.182000
     84 H271         1.7890     8.0070     6.2590 hc         1 SRN       0.043200
     85 H272         3.4470     8.3310     5.7910 hc         1 SRN       0.043200
     86 H261         1.8830     8.9760     4.0100 hc         1 SRN       0.042700
     87 H262         1.1710     7.3730     3.9750 hc         1 SRN       0.042700
     88 H25          4.1690     7.7100     3.3520 ha         1 SRN       0.163000
     89 H24          1.7890     6.6990     1.6610 ha         1 SRN       0.181000
     90 H23          3.2320     6.3980    -0.1190 h1         1 SRN       0.028700
     91 HO6          5.1700     5.1660     0.5930 ho         1 SRN       0.471000
     92 H22          5.5880     7.5300     1.4460 h1         1 SRN       0.101700
     93 HO5          3.6680     8.9340     1.0690 ho         1 SRN       0.499000
     94 H21          5.2700     7.2130    -1.5800 h1         1 SRN       0.047700
     95 H201         6.7320     9.1560    -1.0080 hc         1 SRN       0.069200
     96 H202         7.6100     8.2000     0.1720 hc         1 SRN       0.069200
     97 H19          8.9880     8.2900    -1.8030 h1         1 SRN       0.041700
     98 HO4          8.2070     7.7140    -3.8430 ho         1 SRN       0.441000
     99 H17          9.0110     5.8570    -2.6080 hc         1 SRN       0.044700
    100 H181        10.2920     6.6390    -0.5840 hc         1 SRN       0.046367
    101 H182         8.9300     6.1750     0.4480 hc         1 SRN       0.046367
    102 H183         9.8060     4.9490    -0.4780 hc         1 SRN       0.046367
    103 H16          6.5670     5.4590    -2.5340 h1         1 SRN       0.038700
    104 H151         7.7140     3.6180    -0.3830 hc         1 SRN       0.065200
    105 H152         8.2220     3.5000    -2.0510 hc         1 SRN       0.065200
    106 H14          5.3000     3.1700    -1.1030 ha         1 SRN       0.182000
    107 H13          6.9910     1.8140    -3.3070 ha         1 SRN       0.169000
    108 H12          4.0750     1.5190    -2.3350 h1         1 SRN       0.062700
    109 H35          4.6880    -2.2290    -2.9570 h1         1 SRN       0.088700
    110 H341         5.5230    -0.9880    -5.2020 hc         1 SRN       0.065200
    111 H342         4.0480    -1.9540    -5.3950 hc         1 SRN       0.065200
    112 H9           3.3580     0.3600    -6.0680 h1         1 SRN       0.077700
    113 H1           5.2830     1.5540    -5.1050 hc         1 SRN       0.052700
    114 H111         4.1660     3.6000    -4.2840 hc         1 SRN       0.042033
    115 H112         3.2860     2.9060    -5.6520 hc         1 SRN       0.042033
    116 H113         2.6650     2.7020    -4.0060 hc         1 SRN       0.042033
    117 H8           2.2670    -1.9460    -3.3120 h1         1 SRN       0.056700
    118 H7           1.8100     0.5730    -1.8360 ha         1 SRN       0.183000
    119 H6           3.3940    -1.8570    -0.7290 ha         1 SRN       0.183000
    120 H5           1.8270     0.4840     0.6340 ha         1 SRN       0.175000
    121 H4           2.6650    -0.2500     2.7030 ha         1 SRN       0.207000
    122 H3           3.7910    -2.7620     1.3230 ha         1 SRN       0.172000
    123 H2           5.3550    -3.0390     3.0650 ha         1 SRN       0.198000
@<TRIPOS>BOND
     1     1     2 1   
     2     2     3 1   
     3     2     4 1   
     4     4     5 1   
     5     4    59 1   
     6     4    60 1   
     7     5     6 1   
     8     5    61 1   
     9     5    62 1   
    10     6     7 1   
    11     6    63 1   
    12     6    64 1   
    13     7     8 1   
    14     7    65 1   
    15     7    66 1   
    16     8     9 1   
    17     8    10 1   
    18     8    67 1   
    19     9    68 1   
    20     9    69 1   
    21     9    70 1   
    22    10    11 2   
    23    10    71 1   
    24    11    12 1   
    25    11    13 1   
    26    12    72 1   
    27    12    73 1   
    28    12    74 1   
    29    13    14 1   
    30    13    18 1   
    31    13    75 1   
    32    14    15 1   
    33    14    17 1   
    34    14    76 1   
    35    15    16 2   
    36    15    77 1   
    37    16    19 1   
    38    16    78 1   
    39    17    57 1   
    40    18    19 1   
    41    19    20 1   
    42    19    79 1   
    43    20    21 1   
    44    20    80 1   
    45    20    81 1   
    46    21    22 2   
    47    21    82 1   
    48    22    23 1   
    49    22    83 1   
    50    23    24 1   
    51    23    84 1   
    52    23    85 1   
    53    24    25 1   
    54    24    86 1   
    55    24    87 1   
    56    25    26 2   
    57    25    88 1   
    58    26    27 1   
    59    26    89 1   
    60    27    28 1   
    61    27    29 1   
    62    27    90 1   
    63    28    91 1   
    64    29    30 1   
    65    29    31 1   
    66    29    92 1   
    67    30    93 1   
    68    31    32 1   
    69    31    33 1   
    70    31    94 1   
    71    32    38 1   
    72    33    34 1   
    73    33    95 1   
    74    33    96 1   
    75    34    35 1   
    76    34    36 1   
    77    34    97 1   
    78    35    98 1   
    79    36    37 1   
    80    36    38 1   
    81    36    99 1   
    82    37   100 1   
    83    37   101 1   
    84    37   102 1   
    85    38    39 1   
    86    38   103 1   
    87    39    40 1   
    88    39   104 1   
    89    39   105 1   
    90    40    41 2   
    91    40   106 1   
    92    41    42 1   
    93    41   107 1   
    94    42    43 1   
    95    42    47 1   
    96    42   108 1   
    97    43    44 1   
    98    44    45 1   
    99    44    50 1   
   100    44   109 1   
   101    45    46 1   
   102    45   110 1   
   103    45   111 1   
   104    46    47 1   
   105    46    49 1   
   106    46   112 1   
   107    47    48 1   
   108    47   113 1   
   109    48   114 1   
   110    48   115 1   
   111    48   116 1   
   112    49    50 1   
   113    50    51 1   
   114    50   117 1   
   115    51    52 2   
   116    51   118 1   
   117    52    53 1   
   118    52   119 1   
   119    53    54 2   
   120    53   120 1   
   121    54    55 1   
   122    54   121 1   
   123    55    56 2   
   124    55   122 1   
   125    56    57 1   
   126    56   123 1   
   127    57    58 2   
@<TRIPOS>SUBSTRUCTURE
     1 SRN         1 TEMP              0 ****  ****    0 ROOT
