@<TRIPOS>MOLECULE
SRO
   25    26     1     0     0
SMALL
abcg2


@<TRIPOS>ATOM
      1 OH          16.1680   -13.4160    -4.4120 oh         1 SRO      -0.546100
      2 CZ3         17.1540   -12.4700    -4.5820 ca         1 SRO       0.102100
      3 CH2         16.7770   -11.1320    -4.3660 ca         1 SRO      -0.114000
      4 CZ2         17.6940   -10.1030    -4.5110 ca         1 SRO      -0.096000
      5 CE2         18.9960   -10.4330    -4.8780 ca         1 SRO      -0.072200
      6 NE1         20.1020    -9.6430    -5.0940 na         1 SRO      -0.233700
      7 CD1         21.1670   -10.4430    -5.4450 cc         1 SRO      -0.152100
      8 CG          20.7820   -11.7620    -5.4620 cd         1 SRO      -0.142400
      9 CD2         19.3900   -11.7780    -5.1000 ca         1 SRO      -0.058800
     10 CE3         18.4470   -12.8060    -4.9470 ca         1 SRO      -0.155000
     11 CB          21.6160   -12.9650    -5.7780 c3         1 SRO      -0.003200
     12 CA          23.0170   -12.6410    -6.2820 c3         1 SRO       0.149800
     13 NZ          23.7660   -13.8760    -6.5520 n8         1 SRO      -1.002200
     14 HOH         16.5300   -14.2940    -4.5890 ho         1 SRO       0.458000
     15 HH2         15.7540   -10.9200    -4.0820 ha         1 SRO       0.127000
     16 HZ2         17.4000    -9.0740    -4.3440 ha         1 SRO       0.116000
     17 HNE1        20.1300    -8.6400    -5.0220 hn         1 SRO       0.350000
     18 HD1         22.1260   -10.0010    -5.6590 h4         1 SRO       0.210000
     19 HE3         18.7160   -13.8450    -5.1080 ha         1 SRO       0.116000
     20 HB1         21.7030   -13.6050    -4.8920 hc         1 SRO       0.052700
     21 HB2         21.1020   -13.5740    -6.5320 hc         1 SRO       0.052700
     22 HA1         22.9390   -11.9890    -7.1630 h1         1 SRO       0.027200
     23 HA2         23.5610   -12.0800    -5.5190 h1         1 SRO       0.027200
     24 HNZ1        23.3420   -14.3640    -7.3360 hn         1 SRO       0.392000
     25 HNZ2        24.7100   -13.6460    -6.8460 hn         1 SRO       0.392000
@<TRIPOS>BOND
     1     1     2 1   
     2     1    14 1   
     3     2     3 ar  
     4     2    10 ar  
     5     3     4 ar  
     6     3    15 1   
     7     4     5 ar  
     8     4    16 1   
     9     5     6 1   
    10     5     9 ar  
    11     6     7 1   
    12     6    17 1   
    13     7     8 2   
    14     7    18 1   
    15     8     9 1   
    16     8    11 1   
    17     9    10 ar  
    18    10    19 1   
    19    11    12 1   
    20    11    20 1   
    21    11    21 1   
    22    12    13 1   
    23    12    22 1   
    24    12    23 1   
    25    13    24 1   
    26    13    25 1   
@<TRIPOS>SUBSTRUCTURE
     1 SRO         1 TEMP              0 ****  ****    0 ROOT
