@<TRIPOS>MOLECULE
SRO
   25    26     1     0     0
SMALL
No Charge or Current Charge


@<TRIPOS>ATOM
      1 OH          16.2130   -13.4750    -4.3830 oh         1 SRO      -0.546100
      2 CZ3         17.1340   -12.4830    -4.5530 ca         1 SRO       0.102100
      3 CH2         16.7580   -11.1360    -4.3320 ca         1 SRO      -0.114000
      4 CZ2         17.6950   -10.0930    -4.5010 ca         1 SRO      -0.096000
      5 CE2         18.9950   -10.4430    -4.8920 ca         1 SRO      -0.072200
      6 NE1         20.0860    -9.6250    -5.1230 na         1 SRO      -0.233700
      7 CD1         21.2010   -10.4040    -5.5000 cc         1 SRO      -0.152100
      8 CG          20.7480   -11.7220    -5.4890 cd         1 SRO      -0.142400
      9 CD2         19.3550   -11.7430    -5.1040 ca         1 SRO      -0.058800
     10 CE3         18.4510   -12.8020    -4.9460 ca         1 SRO      -0.155000
     11 CB          21.5570   -12.9580    -5.8210 c3         1 SRO      -0.003200
     12 CA          23.0260   -12.6740    -6.2150 c3         1 SRO       0.149800
     13 NZ          23.7720   -13.9110    -6.5310 n8         1 SRO      -1.002200
     14 HOH         16.6440   -14.3360    -4.5770 ho         1 SRO       0.458000
     15 HH2         15.7400   -10.9030    -4.0290 ha         1 SRO       0.127000
     16 HZ2         17.4160    -9.0550    -4.3340 ha         1 SRO       0.116000
     17 HNE1        20.0810    -8.6130    -5.0340 hn         1 SRO       0.350000
     18 HD1         22.1720    -9.9770    -5.7320 h4         1 SRO       0.210000
     19 HE3         18.7610   -13.8290    -5.1200 ha         1 SRO       0.116000
     20 HB1         21.5500   -13.6350    -4.9580 hc         1 SRO       0.052700
     21 HB2         21.0690   -13.4970    -6.6410 hc         1 SRO       0.052700
     22 HA1         23.0500   -12.0170    -7.0960 h1         1 SRO       0.027200
     23 HA2         23.5350   -12.1630    -5.3860 h1         1 SRO       0.027200
     24 HNZ1        23.3600   -14.3450    -7.3660 hn         1 SRO       0.392000
     25 HNZ2        24.7210   -13.6600    -6.8360 hn         1 SRO       0.392000
@<TRIPOS>BOND
     1     1     2 1   
     2     1    14 1   
     3     2     3 ar  
     4     2    10 ar  
     5     3     4 ar  
     6     3    15 1   
     7     4     5 ar  
     8     4    16 1   
     9     5     6 1   
    10     5     9 ar  
    11     6     7 1   
    12     6    17 1   
    13     7     8 2   
    14     7    18 1   
    15     8     9 1   
    16     8    11 1   
    17     9    10 ar  
    18    10    19 1   
    19    11    12 1   
    20    11    20 1   
    21    11    21 1   
    22    12    13 1   
    23    12    22 1   
    24    12    23 1   
    25    13    24 1   
    26    13    25 1   
@<TRIPOS>SUBSTRUCTURE
     1 SRO         1 TEMP              0 ****  ****    0 ROOT
