@<TRIPOS>MOLECULE
SRR
   51    53     1     0     0
SMALL
abcg2


@<TRIPOS>ATOM
      1 CAA          7.4090     0.7060     0.6230 c3         1 SRR      -0.095100
      2 CAB         -1.6290     2.9290    -1.6590 c3         1 SRR      -0.086100
      3 OAD         -6.8050     0.2390     0.4270 oh         1 SRR      -0.534100
      4 CAE         -0.5060    -3.4170     0.7810 ca         1 SRR      -0.179250
      5 CAF          0.8410    -2.7830    -1.1060 ca         1 SRR      -0.179250
      6 CAG         -4.8450    -0.3230    -0.7380 ca         1 SRR      -0.179250
      7 CAH         -4.6700     0.8290     1.3650 ca         1 SRR      -0.179250
      8 CAI          3.1820     2.0330    -0.9160 ca         1 SRR      -0.177000
      9 CAJ          3.1120     0.5780     0.9960 ca         1 SRR      -0.177000
     10 CAK         -1.0200    -2.1320     0.8320 ca         1 SRR      -0.058250
     11 CAL          0.3260    -1.4990    -1.0330 ca         1 SRR      -0.058250
     12 CAM         -3.4650    -0.3270    -0.8390 ca         1 SRR      -0.058250
     13 CAN         -3.2870     0.8230     1.2420 ca         1 SRR      -0.058250
     14 CAO          1.8010     2.0550    -0.9450 ca         1 SRR      -0.060000
     15 CAP          1.7260     0.6050     0.9430 ca         1 SRR      -0.060000
     16 CAQ          5.9410     0.5410     0.9370 c3         1 SRR       0.165600
     17 CAR         -1.0780     2.7160    -0.2490 c3         1 SRR      -0.037200
     18 OAS          5.2010     1.3160     0.0050 os         1 SRR      -0.350100
     19 CAT         -0.4420     1.3510    -0.0680 ce         1 SRR      -0.031400
     20 CAU         -1.1790     0.2240     0.0120 cf         1 SRR      -0.000400
     21 CAV          0.4350    -3.7510    -0.1910 ca         1 SRR       0.139100
     22 CAW         -5.4580     0.2600     0.3700 ca         1 SRR       0.139100
     23 CAX          3.8550     1.2860     0.0530 ca         1 SRR       0.148100
     24 CAY          1.0370     1.3240    -0.0300 ca         1 SRR      -0.094800
     25 CAZ         -0.6030    -1.1400    -0.0570 ca         1 SRR      -0.086800
     26 CBA         -2.6580     0.2590     0.1370 ca         1 SRR      -0.086800
     27 HAA          7.9980     0.1190     1.3270 hc         1 SRR       0.047033
     28 HAAA         7.6430     0.3550    -0.3830 hc         1 SRR       0.047033
     29 HAAB         7.7220     1.7460     0.7110 hc         1 SRR       0.047033
     30 HAB         -0.8520     2.8120    -2.4160 hc         1 SRR       0.035033
     31 HABA        -2.4190     2.2130    -1.8830 hc         1 SRR       0.035033
     32 HABB        -2.0450     3.9320    -1.7620 hc         1 SRR       0.035033
     33 HOAC         1.5440    -5.1250    -0.9210 ho         1 SRR       0.464000
     34 HOAD        -7.1140     0.6610     1.2370 ho         1 SRR       0.464000
     35 HAE         -0.8370    -4.1650     1.4900 ha         1 SRR       0.120750
     36 HAF          1.5540    -3.0300    -1.8840 ha         1 SRR       0.120750
     37 HAG         -5.4510    -0.7730    -1.5150 ha         1 SRR       0.120750
     38 HAH         -5.1290     1.2730     2.2410 ha         1 SRR       0.120750
     39 HAI          3.7520     2.5920    -1.6480 ha         1 SRR       0.121500
     40 HAJ          3.5910     0.0070     1.7800 ha         1 SRR       0.121500
     41 HAK         -1.7580    -1.8970     1.5890 ha         1 SRR       0.118500
     42 HAL          0.6530    -0.7640    -1.7570 ha         1 SRR       0.118500
     43 HAM         -3.0040    -0.7900    -1.7040 ha         1 SRR       0.118500
     44 HAN         -2.6910     1.2620     2.0330 ha         1 SRR       0.118500
     45 HAO          1.3110     2.6430    -1.7120 ha         1 SRR       0.116500
     46 HAP          1.1700     0.0530     1.6900 ha         1 SRR       0.116500
     47 HAQ          5.6510    -0.5130     0.8670 h1         1 SRR       0.033700
     48 HAQA         5.7310     0.8730     1.9590 h1         1 SRR       0.033700
     49 HAR         -0.3380     3.4870    -0.0320 hc         1 SRR       0.048200
     50 HARA        -1.8820     2.8650     0.4710 hc         1 SRR       0.048200
     51 OAC          0.9060    -5.0140    -0.2070 oh         1 SRR      -0.534100
@<TRIPOS>BOND
     1     1    16 1   
     2     1    27 1   
     3     1    28 1   
     4     1    29 1   
     5     2    17 1   
     6     2    30 1   
     7     2    31 1   
     8     2    32 1   
     9     3    22 1   
    10     3    34 1   
    11     4    10 ar  
    12     4    21 ar  
    13     4    35 1   
    14     5    11 ar  
    15     5    21 ar  
    16     5    36 1   
    17     6    12 ar  
    18     6    22 ar  
    19     6    37 1   
    20     7    13 ar  
    21     7    22 ar  
    22     7    38 1   
    23     8    14 ar  
    24     8    23 ar  
    25     8    39 1   
    26     9    15 ar  
    27     9    23 ar  
    28     9    40 1   
    29    10    25 ar  
    30    10    41 1   
    31    11    25 ar  
    32    11    42 1   
    33    12    26 ar  
    34    12    43 1   
    35    13    26 ar  
    36    13    44 1   
    37    14    24 ar  
    38    14    45 1   
    39    15    24 ar  
    40    15    46 1   
    41    16    18 1   
    42    16    47 1   
    43    16    48 1   
    44    17    19 1   
    45    17    49 1   
    46    17    50 1   
    47    18    23 1   
    48    19    20 2   
    49    19    24 1   
    50    20    25 1   
    51    20    26 1   
    52    21    51 1   
    53    33    51 1   
@<TRIPOS>SUBSTRUCTURE
     1 SRR         1 TEMP              0 ****  ****    0 ROOT
