@<TRIPOS>MOLECULE
SRR
   51    53     1     0     0
SMALL
No Charge or Current Charge


@<TRIPOS>ATOM
      1 CAA          7.5600     0.7930     0.5620 c3         1 SRR      -0.095100
      2 CAB         -1.7200     3.0870    -1.4200 c3         1 SRR      -0.086100
      3 OAD         -6.8540     0.1760     0.2780 oh         1 SRR      -0.534100
      4 CAE         -0.6980    -3.4760     0.7760 ca         1 SRR      -0.179250
      5 CAF          0.8140    -2.8450    -1.0150 ca         1 SRR      -0.179250
      6 CAG         -4.8340    -0.4180    -0.8530 ca         1 SRR      -0.179250
      7 CAH         -4.7500     0.8110     1.2400 ca         1 SRR      -0.179250
      8 CAI          3.2220     1.9160    -1.0530 ca         1 SRR      -0.177000
      9 CAJ          3.1770     0.6260     1.0070 ca         1 SRR      -0.177000
     10 CAK         -1.1880    -2.1590     0.8300 ca         1 SRR      -0.058250
     11 CAL          0.3260    -1.5270    -0.9620 ca         1 SRR      -0.058250
     12 CAM         -3.4300    -0.4080    -0.9180 ca         1 SRR      -0.058250
     13 CAN         -3.3450     0.8240     1.1760 ca         1 SRR      -0.058250
     14 CAO          1.8180     1.9540    -1.0640 ca         1 SRR      -0.060000
     15 CAP          1.7710     0.6650     0.9960 ca         1 SRR      -0.060000
     16 CAQ          6.0820     0.5950     0.9370 c3         1 SRR       0.165600
     17 CAR         -1.0100     2.7590    -0.0900 c3         1 SRR      -0.037200
     18 OAS          5.2880     1.2480    -0.0670 os         1 SRR      -0.350100
     19 CAT         -0.4120     1.3510    -0.0420 ce         1 SRR      -0.031400
     20 CAU         -1.1960     0.2230     0.0200 cf         1 SRR      -0.000400
     21 CAV          0.3030    -3.8170    -0.1430 ca         1 SRR       0.139100
     22 CAW         -5.4930     0.1930     0.2230 ca         1 SRR       0.139100
     23 CAX          3.9090     1.2540    -0.0230 ca         1 SRR       0.148100
     24 CAY          1.0820     1.3260    -0.0390 ca         1 SRR      -0.094800
     25 CAZ         -0.6760    -1.1670    -0.0350 ca         1 SRR      -0.086800
     26 CBA         -2.6750     0.2240     0.0910 ca         1 SRR      -0.086800
     27 HAA          8.2070     0.3090     1.3030 hc         1 SRR       0.047033
     28 HAAA         7.7720     0.3540    -0.4200 hc         1 SRR       0.047033
     29 HAAB         7.8110     1.8600     0.5310 hc         1 SRR       0.047033
     30 HAB         -1.0350     2.9690    -2.2670 hc         1 SRR       0.035033
     31 HABA        -2.5820     2.4290    -1.5810 hc         1 SRR       0.035033
     32 HABB        -2.0820     4.1220    -1.4130 hc         1 SRR       0.035033
     33 HOAC         1.4580    -5.1500    -0.8850 ho         1 SRR       0.464000
     34 HOAD        -7.1370     0.6440     1.0920 ho         1 SRR       0.464000
     35 HAE         -1.0960    -4.2300     1.4500 ha         1 SRR       0.120750
     36 HAF          1.5860    -3.1000    -1.7370 ha         1 SRR       0.120750
     37 HAG         -5.4090    -0.9020    -1.6380 ha         1 SRR       0.120750
     38 HAH         -5.2510     1.2790     2.0840 ha         1 SRR       0.120750
     39 HAI          3.7830     2.4000    -1.8480 ha         1 SRR       0.121500
     40 HAJ          3.6760     0.1050     1.8190 ha         1 SRR       0.121500
     41 HAK         -1.9600    -1.9090     1.5550 ha         1 SRR       0.118500
     42 HAL          0.7200    -0.7880    -1.6560 ha         1 SRR       0.118500
     43 HAM         -2.9260    -0.8830    -1.7570 ha         1 SRR       0.118500
     44 HAN         -2.7760     1.2870     1.9800 ha         1 SRR       0.118500
     45 HAO          1.3030     2.4650    -1.8740 ha         1 SRR       0.116500
     46 HAP          1.2140     0.1780     1.7930 ha         1 SRR       0.116500
     47 HAQ          5.8570    -0.4790     0.9750 h1         1 SRR       0.033700
     48 HAQA         5.8950     1.0300     1.9270 h1         1 SRR       0.033700
     49 HAR         -0.2270     3.5100     0.0690 hc         1 SRR       0.048200
     50 HARA        -1.7140     2.9140     0.7340 hc         1 SRR       0.048200
     51 OAC          0.7700    -5.0960    -0.1880 oh         1 SRR      -0.534100
@<TRIPOS>BOND
     1     1    16 1   
     2     1    27 1   
     3     1    28 1   
     4     1    29 1   
     5     2    17 1   
     6     2    30 1   
     7     2    31 1   
     8     2    32 1   
     9     3    22 1   
    10     3    34 1   
    11     4    10 ar  
    12     4    21 ar  
    13     4    35 1   
    14     5    11 ar  
    15     5    21 ar  
    16     5    36 1   
    17     6    12 ar  
    18     6    22 ar  
    19     6    37 1   
    20     7    13 ar  
    21     7    22 ar  
    22     7    38 1   
    23     8    14 ar  
    24     8    23 ar  
    25     8    39 1   
    26     9    15 ar  
    27     9    23 ar  
    28     9    40 1   
    29    10    25 ar  
    30    10    41 1   
    31    11    25 ar  
    32    11    42 1   
    33    12    26 ar  
    34    12    43 1   
    35    13    26 ar  
    36    13    44 1   
    37    14    24 ar  
    38    14    45 1   
    39    15    24 ar  
    40    15    46 1   
    41    16    18 1   
    42    16    47 1   
    43    16    48 1   
    44    17    19 1   
    45    17    49 1   
    46    17    50 1   
    47    18    23 1   
    48    19    20 2   
    49    19    24 1   
    50    20    25 1   
    51    20    26 1   
    52    21    51 1   
    53    33    51 1   
@<TRIPOS>SUBSTRUCTURE
     1 SRR         1 TEMP              0 ****  ****    0 ROOT
