@<TRIPOS>MOLECULE
SRS
   72    74     1     0     0
SMALL
bcc


@<TRIPOS>ATOM
      1 S1          -2.4850    -0.4730     2.9480 s6         1 SRS       0.331400
      2 N5          -2.3620    -1.8490     2.2600 n2         1 SRS      -0.622900
      3 N6          -2.3840    -0.6900     4.4690 n2         1 SRS      -0.622900
      4 C2          -1.3020     0.7300     2.2620 c3         1 SRS      -0.168600
      5 C3           0.1700     0.3620     2.4730 c3         1 SRS      -0.101700
      6 C4           0.5440    -0.9610     1.8020 c          1 SRS       0.656100
      7 O3           1.0300    -1.8970     2.4060 o          1 SRS      -0.556100
      8 N2           0.3500    -0.9850     0.4600 ns         1 SRS      -0.596900
      9 C5           0.5890    -2.1470    -0.3590 c3         1 SRS       0.030700
     10 C6           1.9850    -2.1880    -0.9970 c          1 SRS       0.656100
     11 O4           2.2890    -3.1420    -1.7010 o          1 SRS      -0.615100
     12 N3           2.8030    -1.1650    -0.7230 ns         1 SRS      -0.561900
     13 C7           4.2070    -1.1160    -1.0820 c3         1 SRS       0.095000
     14 C8           4.6720     0.2210    -1.6530 c3         1 SRS      -0.089400
     15 C9           4.1750     0.5330    -3.0660 c3         1 SRS      -0.071400
     16 C10          2.7820     1.1550    -3.1320 c3         1 SRS      -0.079400
     17 C11          2.1740     1.0570    -4.5290 c3         1 SRS      -0.095400
     18 C12          0.6920     1.3990    -4.5990 c3         1 SRS       0.050300
     19 N4          -0.1020     0.6030    -3.6770 na         1 SRS      -0.055400
     20 C13          0.6290     0.3950     3.9300 c3         1 SRS      -0.075400
     21 C14          0.3220     1.6920     4.6810 c3         1 SRS      -0.055700
     22 C15          0.7820     1.5590     6.1290 c3         1 SRS      -0.091100
     23 C16          0.9590     2.9120     4.0230 c3         1 SRS      -0.091100
     24 C17         -0.5070    -2.2950    -1.4310 c3         1 SRS      -0.004200
     25 C18         -0.6480    -1.0650    -2.2660 cc         1 SRS      -0.168400
     26 C19          0.1940    -0.6670    -3.2650 cd         1 SRS      -0.081100
     27 C20         -1.5570     0.0220    -2.0630 ca         1 SRS      -0.099800
     28 C21         -1.1740     1.0500    -2.9570 ca         1 SRS      -0.050200
     29 C22         -2.6630     0.2240    -1.2290 ca         1 SRS      -0.105000
     30 C23         -1.8520     2.2680    -3.0110 ca         1 SRS      -0.136000
     31 C24         -3.3360     1.4290    -1.2820 ca         1 SRS      -0.162000
     32 C25         -2.9260     2.4440    -2.1600 ca         1 SRS      -0.116000
     33 C26         -4.0190     0.3740     2.5290 c3         1 SRS      -0.209300
     34 HN5         -2.3050    -1.7500     1.2530 hn         1 SRS       0.404400
     35 HN6         -2.5630     0.1760     4.9670 hn         1 SRS       0.404400
     36 H21         -1.5280     1.6950     2.7170 h1         1 SRS       0.083700
     37 H22A        -1.5530     0.8310     1.2020 h1         1 SRS       0.083700
     38 H3           0.7200     1.1360     1.9240 hc         1 SRS       0.057700
     39 HN2         -0.0060    -0.1580     0.0020 hn         1 SRS       0.321500
     40 H5           0.5450    -3.0250     0.2910 h1         1 SRS       0.111700
     41 HN3          2.4670    -0.4500    -0.0980 hn         1 SRS       0.312500
     42 H71          4.3970    -1.9070    -1.8070 h1         1 SRS       0.056700
     43 H72          4.8020    -1.3480    -0.1940 h1         1 SRS       0.056700
     44 H81          5.7630     0.1780    -1.6620 hc         1 SRS       0.044200
     45 H82          4.4160     1.0340    -0.9660 hc         1 SRS       0.044200
     46 H91          4.1850    -0.3930    -3.6520 hc         1 SRS       0.041700
     47 H92          4.8870     1.2010    -3.5590 hc         1 SRS       0.041700
     48 H101         2.8260     2.2010    -2.8150 hc         1 SRS       0.046700
     49 H102         2.1350     0.6500    -2.4130 hc         1 SRS       0.046700
     50 H111         2.3350     0.0490    -4.9240 hc         1 SRS       0.052200
     51 H112         2.6950     1.7240    -5.2200 hc         1 SRS       0.052200
     52 H121         0.3270     1.2660    -5.6210 h1         1 SRS       0.056700
     53 H122         0.5420     2.4470    -4.3370 h1         1 SRS       0.056700
     54 H131         1.7120     0.2400     3.9480 hc         1 SRS       0.073700
     55 H132         0.1840    -0.4380     4.4740 hc         1 SRS       0.073700
     56 H14         -0.7630     1.8430     4.7040 hc         1 SRS       0.027700
     57 H151         0.5510     2.4590     6.7010 hc         1 SRS       0.034867
     58 H152         0.2940     0.7170     6.6220 hc         1 SRS       0.034867
     59 H153         1.8610     1.3970     6.1850 hc         1 SRS       0.034867
     60 H161         2.0450     2.7990     3.9630 hc         1 SRS       0.034867
     61 H162         0.5900     3.0840     3.0100 hc         1 SRS       0.034867
     62 H163         0.7520     3.8170     4.5970 hc         1 SRS       0.034867
     63 H171        -0.2690    -3.1650    -2.0430 hc         1 SRS       0.069700
     64 H172        -1.4480    -2.5290    -0.9290 hc         1 SRS       0.069700
     65 H19          1.0150    -1.2160    -3.7000 h4         1 SRS       0.179000
     66 H22         -3.0130    -0.5660    -0.5730 ha         1 SRS       0.123000
     67 H23         -1.5600     3.0510    -3.6990 ha         1 SRS       0.133000
     68 H24         -4.2000     1.5920    -0.6500 ha         1 SRS       0.127000
     69 H25         -3.4710     3.3790    -2.1800 ha         1 SRS       0.130000
     70 H261        -4.8220    -0.2800     2.8630 h1         1 SRS       0.089033
     71 H262        -4.0730     1.3290     3.0490 h1         1 SRS       0.089033
     72 H263        -4.0900     0.5310     1.4550 h1         1 SRS       0.089033
@<TRIPOS>BOND
     1     1     2 2   
     2     1     3 2   
     3     1     4 1   
     4     1    33 1   
     5     2    34 1   
     6     3    35 1   
     7     4     5 1   
     8     4    36 1   
     9     4    37 1   
    10     5     6 1   
    11     5    20 1   
    12     5    38 1   
    13     6     7 2   
    14     6     8 1   
    15     8     9 1   
    16     8    39 1   
    17     9    10 1   
    18     9    24 1   
    19     9    40 1   
    20    10    11 2   
    21    10    12 1   
    22    12    13 1   
    23    12    41 1   
    24    13    14 1   
    25    13    42 1   
    26    13    43 1   
    27    14    15 1   
    28    14    44 1   
    29    14    45 1   
    30    15    16 1   
    31    15    46 1   
    32    15    47 1   
    33    16    17 1   
    34    16    48 1   
    35    16    49 1   
    36    17    18 1   
    37    17    50 1   
    38    17    51 1   
    39    18    19 1   
    40    18    52 1   
    41    18    53 1   
    42    19    26 1   
    43    19    28 1   
    44    20    21 1   
    45    20    54 1   
    46    20    55 1   
    47    21    22 1   
    48    21    23 1   
    49    21    56 1   
    50    22    57 1   
    51    22    58 1   
    52    22    59 1   
    53    23    60 1   
    54    23    61 1   
    55    23    62 1   
    56    24    25 1   
    57    24    63 1   
    58    24    64 1   
    59    25    26 2   
    60    25    27 1   
    61    26    65 1   
    62    27    28 ar  
    63    27    29 ar  
    64    28    30 ar  
    65    29    31 ar  
    66    29    66 1   
    67    30    32 ar  
    68    30    67 1   
    69    31    32 ar  
    70    31    68 1   
    71    32    69 1   
    72    33    70 1   
    73    33    71 1   
    74    33    72 1   
@<TRIPOS>SUBSTRUCTURE
     1 SRS         1 TEMP              0 ****  ****    0 ROOT
