@<TRIPOS>MOLECULE
SRS
   72    74     1     0     0
SMALL
No Charge or Current Charge


@<TRIPOS>ATOM
      1 S1          -2.6790    -0.8050     4.0470 s6         1 SRS       0.553000
      2 N5          -2.1810    -2.2620     4.1220 n2         1 SRS      -0.622900
      3 N6          -2.0590    -0.3490     5.3830 n2         1 SRS      -0.622900
      4 C2          -2.1810     0.1680     2.5990 c3         1 SRS      -0.279400
      5 C3          -0.6800     0.1240     2.1480 c3         1 SRS      -0.101700
      6 C4          -0.2800    -1.2110     1.4730 c          1 SRS       0.589100
      7 O3          -0.2120    -2.2730     2.0720 o          1 SRS      -0.556100
      8 N2           0.0160    -1.1120     0.1340 ns         1 SRS      -0.529900
      9 C5           0.2900    -2.2510    -0.7780 c3         1 SRS       0.030700
     10 C6           1.7980    -2.3320    -1.1770 c          1 SRS       0.589100
     11 O4           2.2230    -3.1760    -1.9560 o          1 SRS      -0.615100
     12 N3           2.6380    -1.4050    -0.5840 ns         1 SRS      -0.494900
     13 C7           4.0990    -1.3600    -0.7310 c3         1 SRS       0.095000
     14 C8           4.6590     0.0350    -1.1080 c3         1 SRS      -0.089400
     15 C9           4.4090     0.4740    -2.5730 c3         1 SRS      -0.071400
     16 C10          3.0150     1.0880    -2.8290 c3         1 SRS      -0.079400
     17 C11          2.6800     1.2370    -4.3360 c3         1 SRS      -0.095400
     18 C12          1.2360     1.7250    -4.6170 c3         1 SRS       0.079600
     19 N4           0.1950     0.8900    -3.9790 na         1 SRS      -0.084700
     20 C13          0.3640     0.5400     3.2280 c3         1 SRS      -0.075400
     21 C14          0.1990     1.9670     3.8280 c3         1 SRS      -0.055700
     22 C15          1.1990     2.1910     4.9850 c3         1 SRS      -0.091100
     23 C16          0.3320     3.0880     2.7690 c3         1 SRS      -0.091100
     24 C17         -0.6550    -2.1810    -2.0080 c3         1 SRS      -0.004200
     25 C18         -0.5920    -0.8500    -2.7140 cc         1 SRS      -0.168400
     26 C19          0.2370    -0.5100    -3.7750 cd         1 SRS      -0.131100
     27 C20         -1.2430     0.3680    -2.3150 ca         1 SRS      -0.099800
     28 C21         -0.7450     1.3840    -3.0830 ca         1 SRS      -0.050200
     29 C22         -2.2170     0.5880    -1.3290 ca         1 SRS      -0.087000
     30 C23         -1.1960     2.7050    -2.9150 ca         1 SRS      -0.118000
     31 C24         -2.6750     1.9050    -1.1320 ca         1 SRS      -0.144000
     32 C25         -2.1670     2.9610    -1.9230 ca         1 SRS      -0.098000
     33 C26         -4.4650    -0.7540     4.1700 c3         1 SRS      -0.320100
     34 HN5         -1.4580    -2.3920     3.3980 hn         1 SRS       0.404400
     35 HN6         -1.5000     0.4920     5.2090 hn         1 SRS       0.404400
     36 H21         -2.4720     1.2030     2.8170 h1         1 SRS       0.083700
     37 H22A        -2.8130    -0.1810     1.7730 h1         1 SRS       0.083700
     38 H3          -0.6110     0.8750     1.3520 hc         1 SRS       0.057700
     39 HN2         -0.1230    -0.2000    -0.2910 hn         1 SRS       0.321500
     40 H5           0.0830    -3.1900    -0.2470 h1         1 SRS       0.111700
     41 HN3          2.1960    -0.7490     0.0480 hn         1 SRS       0.312500
     42 H71          4.4270    -2.0940    -1.4790 h1         1 SRS       0.056700
     43 H72          4.5350    -1.6620     0.2310 h1         1 SRS       0.056700
     44 H81          5.7440    -0.0000    -0.9540 hc         1 SRS       0.044200
     45 H82          4.2760     0.7940    -0.4140 hc         1 SRS       0.044200
     46 H91          4.5620    -0.3900    -3.2330 hc         1 SRS       0.041700
     47 H92          5.1670     1.2160    -2.8550 hc         1 SRS       0.041700
     48 H101         2.9550     2.0690    -2.3430 hc         1 SRS       0.046700
     49 H102         2.2600     0.4610    -2.3480 hc         1 SRS       0.046700
     50 H111         2.8300     0.2730    -4.8370 hc         1 SRS       0.052200
     51 H112         3.3860     1.9390    -4.7960 hc         1 SRS       0.052200
     52 H121         1.0590     1.7330    -5.6990 h1         1 SRS       0.056700
     53 H122         1.1450     2.7560    -4.2570 h1         1 SRS       0.056700
     54 H131         1.3640     0.4740     2.7790 hc         1 SRS       0.073700
     55 H132         0.3620    -0.2030     4.0350 hc         1 SRS       0.073700
     56 H14         -0.8050     2.0500     4.2600 hc         1 SRS       0.027700
     57 H151         1.0470     3.1750     5.4450 hc         1 SRS       0.034867
     58 H152         1.0690     1.4320     5.7660 hc         1 SRS       0.034867
     59 H153         2.2330     2.1380     4.6240 hc         1 SRS       0.034867
     60 H161         1.2880     3.0140     2.2370 hc         1 SRS       0.034867
     61 H162        -0.4790     3.0390     2.0330 hc         1 SRS       0.034867
     62 H163         0.2810     4.0760     3.2440 hc         1 SRS       0.034867
     63 H171        -0.4130    -2.9930    -2.7050 hc         1 SRS       0.069700
     64 H172        -1.6820    -2.3670    -1.6730 hc         1 SRS       0.069700
     65 H19          0.9410    -1.1400    -4.3110 h4         1 SRS       0.229000
     66 H22         -2.6100    -0.2320    -0.7330 ha         1 SRS       0.105000
     67 H23         -0.8160     3.5170    -3.5300 ha         1 SRS       0.115000
     68 H24         -3.4260     2.1100    -0.3720 ha         1 SRS       0.109000
     69 H25         -2.5300     3.9750    -1.7700 ha         1 SRS       0.112000
     70 H261        -4.7630    -1.3150     5.0630 h1         1 SRS       0.089033
     71 H262        -4.7730     0.2940     4.2490 h1         1 SRS       0.089033
     72 H263        -4.8830    -1.2130     3.2670 h1         1 SRS       0.089033
@<TRIPOS>BOND
     1     1     2 2   
     2     1     3 2   
     3     1     4 1   
     4     1    33 1   
     5     2    34 1   
     6     3    35 1   
     7     4     5 1   
     8     4    36 1   
     9     4    37 1   
    10     5     6 1   
    11     5    20 1   
    12     5    38 1   
    13     6     7 2   
    14     6     8 1   
    15     8     9 1   
    16     8    39 1   
    17     9    10 1   
    18     9    24 1   
    19     9    40 1   
    20    10    11 2   
    21    10    12 1   
    22    12    13 1   
    23    12    41 1   
    24    13    14 1   
    25    13    42 1   
    26    13    43 1   
    27    14    15 1   
    28    14    44 1   
    29    14    45 1   
    30    15    16 1   
    31    15    46 1   
    32    15    47 1   
    33    16    17 1   
    34    16    48 1   
    35    16    49 1   
    36    17    18 1   
    37    17    50 1   
    38    17    51 1   
    39    18    19 1   
    40    18    52 1   
    41    18    53 1   
    42    19    26 1   
    43    19    28 1   
    44    20    21 1   
    45    20    54 1   
    46    20    55 1   
    47    21    22 1   
    48    21    23 1   
    49    21    56 1   
    50    22    57 1   
    51    22    58 1   
    52    22    59 1   
    53    23    60 1   
    54    23    61 1   
    55    23    62 1   
    56    24    25 1   
    57    24    63 1   
    58    24    64 1   
    59    25    26 2   
    60    25    27 1   
    61    26    65 1   
    62    27    28 ar  
    63    27    29 ar  
    64    28    30 ar  
    65    29    31 ar  
    66    29    66 1   
    67    30    32 ar  
    68    30    67 1   
    69    31    32 ar  
    70    31    68 1   
    71    32    69 1   
    72    33    70 1   
    73    33    71 1   
    74    33    72 1   
@<TRIPOS>SUBSTRUCTURE
     1 SRS         1 TEMP              0 ****  ****    0 ROOT
