@<TRIPOS>MOLECULE
SRT
   14    13     1     0     0
SMALL
No Charge or Current Charge


@<TRIPOS>ATOM
      1 O1           2.6800    -0.7120     0.7790 o          1 SRT      -0.753750
      2 O11          2.4920     0.6510    -0.8710 o          1 SRT      -0.753750
      3 C1           2.0060     0.0090     0.0540 c          1 SRT       0.692000
      4 C2           0.5270     0.3410     0.4800 c3         1 SRT       0.027800
      5 O2           0.2990     1.7760     0.5490 oh         1 SRT      -0.692000
      6 C3          -0.5100    -0.3210    -0.4790 c3         1 SRT       0.027800
      7 O3          -0.2790    -1.7560    -0.5520 oh         1 SRT      -0.692000
      8 C4          -1.9890     0.0040    -0.0460 c          1 SRT       0.692000
      9 O4          -2.4700    -0.6450     0.8760 o          1 SRT      -0.753750
     10 O41         -2.6680     0.7270    -0.7660 o          1 SRT      -0.753750
     11 H2           0.3740    -0.0890     1.4800 h1         1 SRT       0.030200
     12 HA           0.8890     2.1720    -0.1360 ho         1 SRT       0.449000
     13 H3          -0.3620     0.1120    -1.4770 h1         1 SRT       0.030200
     14 HB          -0.8680    -2.1550     0.1310 ho         1 SRT       0.449000
@<TRIPOS>BOND
     1     1     3 1   
     2     2     3 1   
     3     3     4 1   
     4     4     5 1   
     5     4     6 1   
     6     4    11 1   
     7     5    12 1   
     8     6     7 1   
     9     6     8 1   
    10     6    13 1   
    11     7    14 1   
    12     8     9 1   
    13     8    10 1   
@<TRIPOS>SUBSTRUCTURE
     1 SRT         1 TEMP              0 ****  ****    0 ROOT
