@<TRIPOS>MOLECULE
SRT
   14    13     1     0     0
SMALL
abcg2


@<TRIPOS>ATOM
      1 O1           2.5030    -0.9480     0.1880 o          1 SRT      -0.753750
      2 O11          2.4950     1.1700    -0.5170 o          1 SRT      -0.753750
      3 C1           1.9710     0.1550     0.0080 c          1 SRT       0.692000
      4 C2           0.5020     0.3660     0.4450 c3         1 SRT       0.027800
      5 O2           0.2140     1.7380     0.3870 oh         1 SRT      -0.692000
      6 C3          -0.4680    -0.4480    -0.4410 c3         1 SRT       0.027800
      7 O3          -0.3160    -1.8270    -0.2100 oh         1 SRT      -0.692000
      8 C4          -1.9300    -0.0550    -0.1310 c          1 SRT       0.692000
      9 O4          -2.4910    -0.8080     0.7020 o          1 SRT      -0.753750
     10 O41         -2.4260     0.9270    -0.7020 o          1 SRT      -0.753750
     11 H2           0.3790     0.0010     1.4750 h1         1 SRT       0.030200
     12 HA           1.0090     2.0870    -0.0620 ho         1 SRT       0.449000
     13 H3          -0.2510    -0.2280    -1.4950 h1         1 SRT       0.030200
     14 HB          -1.0700    -2.0160     0.3760 ho         1 SRT       0.449000
@<TRIPOS>BOND
     1     1     3 1   
     2     2     3 1   
     3     3     4 1   
     4     4     5 1   
     5     4     6 1   
     6     4    11 1   
     7     5    12 1   
     8     6     7 1   
     9     6     8 1   
    10     6    13 1   
    11     7    14 1   
    12     8     9 1   
    13     8    10 1   
@<TRIPOS>SUBSTRUCTURE
     1 SRT         1 TEMP              0 ****  ****    0 ROOT
