@<TRIPOS>MOLECULE
SRU
   44    46     1     0     0
SMALL
No Charge or Current Charge


@<TRIPOS>ATOM
      1 C10        -21.1530    -4.1530    11.6140 ca         1 SRU      -0.095300
      2 C11        -21.6010    -5.2190    10.8130 ca         1 SRU      -0.085000
      3 C12        -22.4360    -4.9910     9.7070 ca         1 SRU      -0.169000
      4 C13        -22.8410    -3.6790     9.3790 ca         1 SRU       0.118100
      5 C14        -22.3970    -2.5950    10.1720 ca         1 SRU       0.110100
      6 C15        -21.5560    -2.8390    11.2830 ca         1 SRU      -0.151000
      7 C16        -19.6080    -0.3450    15.4180 ca         1 SRU      -0.083500
      8 C17        -19.9340     0.6810    16.3220 ca         1 SRU      -0.115000
      9 C18        -21.0460     0.5480    17.1690 ca         1 SRU      -0.095000
     10 C19        -21.8310    -0.6140    17.1120 ca         1 SRU      -0.115000
     11 C2         -18.0250    -3.8290    11.7370 c          1 SRU       0.624100
     12 C20        -21.5080    -1.6420    16.2090 ca         1 SRU      -0.083500
     13 C22        -22.4070    -0.1510    10.5820 c3         1 SRU       0.145900
     14 C24        -24.1620    -4.4580     7.4350 c3         1 SRU       0.145900
     15 C3         -16.8490    -2.8490    11.6890 c3         1 SRU      -0.157100
     16 C6         -20.0520    -2.6160    14.3900 ce         1 SRU       0.380900
     17 C7         -20.9070    -3.8560    14.1080 c5         1 SRU      -0.157700
     18 C8         -20.2380    -4.4500    12.8140 c5         1 SRU       0.152000
     19 C9         -20.3940    -1.5180    15.3490 ca         1 SRU      -0.120900
     20 N1         -19.0400    -3.6040    12.7060 n          1 SRU      -0.202800
     21 N5         -19.0240    -2.5880    13.6120 n2         1 SRU      -0.429300
     22 O21        -22.8040    -1.3140     9.8330 os         1 SRU      -0.330100
     23 O23        -23.6640    -3.4180     8.2950 os         1 SRU      -0.328100
     24 O4         -18.0720    -4.7820    10.9660 o          1 SRU      -0.586100
     25 H1         -21.2980    -6.2380    11.0490 ha         1 SRU       0.115000
     26 H2         -22.7570    -5.8460     9.1190 ha         1 SRU       0.120000
     27 H3         -21.2070    -2.0140    11.8950 ha         1 SRU       0.123000
     28 H4         -18.7430    -0.2220    14.7710 ha         1 SRU       0.121000
     29 H5         -19.3230     1.5800    16.3660 ha         1 SRU       0.116500
     30 H6         -21.2970     1.3430    17.8690 ha         1 SRU       0.116000
     31 H7         -22.6920    -0.7190    17.7690 ha         1 SRU       0.116500
     32 H8         -22.1290    -2.5340    16.1860 ha         1 SRU       0.121000
     33 H9         -22.8430     0.7530    10.1400 h1         1 SRU       0.041367
     34 H10        -22.7500    -0.2210    11.6220 h1         1 SRU       0.041367
     35 H11        -21.3150    -0.0380    10.5780 h1         1 SRU       0.041367
     36 H12        -24.7920    -4.0290     6.6460 h1         1 SRU       0.041033
     37 H13        -23.3350    -4.9960     6.9540 h1         1 SRU       0.041033
     38 H14        -24.7690    -5.1760     8.0010 h1         1 SRU       0.041033
     39 H15        -16.1200    -3.1030    10.9120 hc         1 SRU       0.065033
     40 H16        -17.2380    -1.8330    11.5630 hc         1 SRU       0.065033
     41 H17        -16.3830    -2.8020    12.6790 hc         1 SRU       0.065033
     42 H18        -21.9660    -3.6120    13.9780 hc         1 SRU       0.076200
     43 H19        -20.8310    -4.5600    14.9420 hc         1 SRU       0.076200
     44 H20        -19.9920    -5.5170    12.9100 h1         1 SRU       0.083700
@<TRIPOS>BOND
     1     1     2 ar  
     2     1     6 ar  
     3     1    18 1   
     4     2     3 ar  
     5     2    25 1   
     6     3     4 ar  
     7     3    26 1   
     8     4     5 ar  
     9     4    23 1   
    10     5     6 ar  
    11     5    22 1   
    12     6    27 1   
    13     7     8 ar  
    14     7    19 ar  
    15     7    28 1   
    16     8     9 ar  
    17     8    29 1   
    18     9    10 ar  
    19     9    30 1   
    20    10    12 ar  
    21    10    31 1   
    22    11    15 1   
    23    11    20 1   
    24    11    24 2   
    25    12    19 ar  
    26    12    32 1   
    27    13    22 1   
    28    13    33 1   
    29    13    34 1   
    30    13    35 1   
    31    14    23 1   
    32    14    36 1   
    33    14    37 1   
    34    14    38 1   
    35    15    39 1   
    36    15    40 1   
    37    15    41 1   
    38    16    17 1   
    39    16    19 1   
    40    16    21 2   
    41    17    18 1   
    42    17    42 1   
    43    17    43 1   
    44    18    20 1   
    45    18    44 1   
    46    20    21 1   
@<TRIPOS>SUBSTRUCTURE
     1 SRU         1 TEMP              0 ****  ****    0 ROOT
