@<TRIPOS>MOLECULE
SRU
   44    46     1     0     0
SMALL
abcg2


@<TRIPOS>ATOM
      1 C10        -21.1660    -4.0620    11.5160 ca         1 SRU      -0.095300
      2 C11        -21.7880    -5.1650    10.9610 ca         1 SRU      -0.085000
      3 C12        -22.6550    -5.0180     9.8750 ca         1 SRU      -0.169000
      4 C13        -22.9020    -3.7640     9.3350 ca         1 SRU       0.118100
      5 C14        -22.2660    -2.6330     9.8980 ca         1 SRU       0.110100
      6 C15        -21.4120    -2.7940    10.9770 ca         1 SRU      -0.151000
      7 C16        -19.6210    -0.4350    15.6970 ca         1 SRU      -0.083500
      8 C17        -19.9230     0.4300    16.7350 ca         1 SRU      -0.115000
      9 C18        -21.0170     0.1800    17.5640 ca         1 SRU      -0.095000
     10 C19        -21.8060    -0.9430    17.3430 ca         1 SRU      -0.115000
     11 C2         -18.0850    -3.4610    11.7440 c          1 SRU       0.624100
     12 C20        -21.5060    -1.8140    16.3010 ca         1 SRU      -0.083500
     13 C22        -21.9120    -0.2740     9.8340 c3         1 SRU       0.145900
     14 C24        -24.3840    -4.6330     7.6800 c3         1 SRU       0.145900
     15 C3         -16.9820    -2.4370    11.7930 c3         1 SRU      -0.157100
     16 C6         -20.1090    -2.4930    14.3720 ce         1 SRU       0.380900
     17 C7         -20.9230    -3.7190    14.0380 c5         1 SRU      -0.157700
     18 C8         -20.2740    -4.2120    12.7250 c5         1 SRU       0.152000
     19 C9         -20.4100    -1.5720    15.4650 ca         1 SRU      -0.120900
     20 N1         -19.0830    -3.3340    12.6560 n          1 SRU      -0.202800
     21 N5         -19.0960    -2.3300    13.5980 n2         1 SRU      -0.429300
     22 O21        -22.5510    -1.4390     9.3140 os         1 SRU      -0.330100
     23 O23        -23.7200    -3.5220     8.2760 os         1 SRU      -0.328100
     24 O4         -18.1080    -4.3810    10.9260 o          1 SRU      -0.586100
     25 H1         -21.6010    -6.1530    11.3620 ha         1 SRU       0.115000
     26 H2         -23.1280    -5.8930     9.4530 ha         1 SRU       0.120000
     27 H3         -20.9190    -1.9320    11.4030 ha         1 SRU       0.123000
     28 H4         -18.7740    -0.2390    15.0530 ha         1 SRU       0.121000
     29 H5         -19.3070     1.3040    16.9020 ha         1 SRU       0.116500
     30 H6         -21.2520     0.8590    18.3740 ha         1 SRU       0.116000
     31 H7         -22.6570    -1.1440    17.9810 ha         1 SRU       0.116500
     32 H8         -22.1280    -2.6840    16.1400 ha         1 SRU       0.121000
     33 H9         -22.2690     0.5550     9.2280 h1         1 SRU       0.041367
     34 H10        -22.1840    -0.1100    10.8790 h1         1 SRU       0.041367
     35 H11        -20.8250    -0.3520     9.7480 h1         1 SRU       0.041367
     36 H12        -24.9800    -4.2230     6.8680 h1         1 SRU       0.041033
     37 H13        -23.6660    -5.3540     7.2810 h1         1 SRU       0.041033
     38 H14        -25.0380    -5.1330     8.4000 h1         1 SRU       0.041033
     39 H15        -16.2670    -2.6650    11.0070 hc         1 SRU       0.065033
     40 H16        -17.3840    -1.4330    11.6500 hc         1 SRU       0.065033
     41 H17        -16.4830    -2.4520    12.7630 hc         1 SRU       0.065033
     42 H18        -21.9790    -3.4860    13.9050 hc         1 SRU       0.076200
     43 H19        -20.8460    -4.4580    14.8380 hc         1 SRU       0.076200
     44 H20        -19.9470    -5.2470    12.8050 h1         1 SRU       0.083700
@<TRIPOS>BOND
     1     1     2 ar  
     2     1     6 ar  
     3     1    18 1   
     4     2     3 ar  
     5     2    25 1   
     6     3     4 ar  
     7     3    26 1   
     8     4     5 ar  
     9     4    23 1   
    10     5     6 ar  
    11     5    22 1   
    12     6    27 1   
    13     7     8 ar  
    14     7    19 ar  
    15     7    28 1   
    16     8     9 ar  
    17     8    29 1   
    18     9    10 ar  
    19     9    30 1   
    20    10    12 ar  
    21    10    31 1   
    22    11    15 1   
    23    11    20 1   
    24    11    24 2   
    25    12    19 ar  
    26    12    32 1   
    27    13    22 1   
    28    13    33 1   
    29    13    34 1   
    30    13    35 1   
    31    14    23 1   
    32    14    36 1   
    33    14    37 1   
    34    14    38 1   
    35    15    39 1   
    36    15    40 1   
    37    15    41 1   
    38    16    17 1   
    39    16    19 1   
    40    16    21 2   
    41    17    18 1   
    42    17    42 1   
    43    17    43 1   
    44    18    20 1   
    45    18    44 1   
    46    20    21 1   
@<TRIPOS>SUBSTRUCTURE
     1 SRU         1 TEMP              0 ****  ****    0 ROOT
