@<TRIPOS>MOLECULE
SRV
  139   139     1     0     0
SMALL
No Charge or Current Charge


@<TRIPOS>ATOM
      1 O4           0.4540    -5.1590     3.8070 oh         1 SRV      -0.791000
      2 C4           0.2920    -6.5140     3.3320 c6         1 SRV       0.135300
      3 C3          -0.9980    -6.6260     2.4590 c6         1 SRV       0.166300
      4 O3          -2.1200    -6.1950     3.2570 oh         1 SRV      -0.670000
      5 C2          -1.1760    -8.0830     1.9170 c6         1 SRV       0.156300
      6 O2          -2.3440    -8.1890     1.0550 oh         1 SRV      -0.704000
      7 C1           0.1450    -8.5330     1.1880 c6         1 SRV       0.340300
      8 O1           0.3680    -7.7950    -0.0310 os         1 SRV      -0.459000
      9 O5           1.2860    -8.3750     2.0630 os         1 SRV      -0.430000
     10 C5           1.5320    -7.0120     2.5400 c6         1 SRV      -0.023700
     11 C6           2.8290    -6.8820     3.4110 c          1 SRV       0.725000
     12 O6A          3.2690    -7.9130     3.9070 o          1 SRV      -0.704000
     13 O6B          3.6060    -6.0030     3.0590 o          1 SRV      -0.704000
     14 C7           1.4180    -8.2790    -0.8940 c3         1 SRV       0.146600
     15 O7          -0.7300    -6.7410    -2.4500 os         1 SRV      -0.404100
     16 C8           1.6410    -7.2970    -2.0890 c3         1 SRV       0.168300
     17 O8           1.9200    -5.9590    -1.6010 os         1 SRV      -0.431100
     18 C9           0.4620    -7.2250    -3.1010 c3         1 SRV       0.170600
     19 O9           4.0160    -6.5280    -0.8470 o          1 SRV      -0.503000
     20 C10         -1.8850    -6.6700    -3.1790 c          1 SRV       0.603100
     21 O10         -1.9780    -6.9700    -4.3620 o          1 SRV      -0.525000
     22 C11         -3.0560    -6.1620    -2.3370 c3         1 SRV      -0.145400
     23 C12         -3.2540    -4.6380    -2.5070 c3         1 SRV      -0.064400
     24 C13         -4.4290    -4.0820    -1.6710 c3         1 SRV      -0.076400
     25 C14         -4.5970    -2.5540    -1.8210 c3         1 SRV      -0.074400
     26 C15         -5.7650    -1.9800    -0.9890 c3         1 SRV      -0.073400
     27 C16         -5.8910    -0.4470    -1.1200 c3         1 SRV      -0.076400
     28 C17         -7.0520     0.1450    -0.2910 c3         1 SRV      -0.072400
     29 C18         -7.1200     1.6880    -0.3840 c3         1 SRV      -0.074400
     30 C19         -8.3370     2.3530     0.3220 c3         1 SRV      -0.055700
     31 C20         -8.3500     3.8780     0.0180 c3         1 SRV      -0.073400
     32 C21         -9.5870     4.6550     0.5300 c3         1 SRV      -0.072400
     33 C22         -9.5730     6.1360     0.0940 c3         1 SRV      -0.075400
     34 C23        -10.7710     6.9470     0.6320 c3         1 SRV      -0.074400
     35 C24        -10.7330     8.4250     0.1880 c3         1 SRV      -0.074400
     36 C25        -11.9050     9.2620     0.7440 c3         1 SRV      -0.075400
     37 C26          3.1060    -5.7190    -0.9550 c          1 SRV       0.603100
     38 C27          3.1580    -4.3050    -0.3710 c3         1 SRV      -0.131400
     39 C28          4.0930    -3.3760    -1.1820 c3         1 SRV      -0.064400
     40 C29          4.2120    -1.9640    -0.5640 c3         1 SRV      -0.077400
     41 C30          5.2550    -1.0680    -1.2720 c3         1 SRV      -0.070400
     42 C31          5.3810     0.3270    -0.6190 c3         1 SRV      -0.074400
     43 C32          6.5000     1.1990    -1.2330 c3         1 SRV      -0.074400
     44 C33          6.6300     2.5750    -0.5400 c3         1 SRV      -0.074400
     45 C34          7.8110     3.4220    -1.0690 c3         1 SRV      -0.074400
     46 C35          7.9490     4.7750    -0.3360 c3         1 SRV      -0.074400
     47 C36          9.1750     5.5980    -0.7930 c3         1 SRV      -0.074400
     48 C37          9.3150     6.9350    -0.0300 c3         1 SRV      -0.074400
     49 C38         10.5680     7.7410    -0.4370 c3         1 SRV      -0.074400
     50 C39         10.7020     9.0680     0.3440 c3         1 SRV      -0.074400
     51 C40         11.9690     9.8700    -0.0290 c3         1 SRV      -0.075400
     52 C41         12.0900    11.1950     0.7590 c3         1 SRV      -0.075400
     53 C42         13.3570    11.9960     0.4050 c3         1 SRV      -0.088100
     54 C43        -13.0070    11.5870     0.8610 c3         1 SRV      -0.088100
     55 C44        -11.8500    10.7400     0.2980 c3         1 SRV      -0.075400
     56 C45         -8.3660     2.0580     1.8450 c3         1 SRV      -0.087100
     57 H1           0.8980    -4.6390     3.0910 ho         1 SRV       0.577000
     58 H2           0.1700    -7.1820     4.1980 h1         1 SRV       0.037700
     59 H3          -0.8810    -5.9570     1.5920 h1         1 SRV       0.054700
     60 H4          -1.7370    -5.5080     3.8500 ho         1 SRV       0.452000
     61 H5          -1.3050    -8.7480     2.7840 h1         1 SRV       0.049700
     62 H6          -2.3760    -9.1140     0.7220 ho         1 SRV       0.489000
     63 H7           0.0450    -9.5990     0.9340 h2         1 SRV       0.041700
     64 H8           1.6790    -6.3650     1.6630 h1         1 SRV       0.050700
     65 H10          2.3560    -8.3920    -0.3360 h1         1 SRV       0.043200
     66 H11          1.1560    -9.2690    -1.2910 h1         1 SRV       0.043200
     67 H12          2.5050    -7.6680    -2.6570 h1         1 SRV       0.060700
     68 H13          0.2930    -8.2280    -3.5140 h1         1 SRV       0.049700
     69 H14          0.7440    -6.5630    -3.9300 h1         1 SRV       0.049700
     70 H15         -3.9700    -6.6820    -2.6460 hc         1 SRV       0.090700
     71 H16         -2.8410    -6.3530    -1.2790 hc         1 SRV       0.090700
     72 H17         -2.3300    -4.1210    -2.2180 hc         1 SRV       0.043700
     73 H18         -3.4290    -4.4120    -3.5670 hc         1 SRV       0.043700
     74 H19         -5.3590    -4.5800    -1.9770 hc         1 SRV       0.045200
     75 H20         -4.2670    -4.3250    -0.6130 hc         1 SRV       0.045200
     76 H21         -3.6650    -2.0600    -1.5180 hc         1 SRV       0.033700
     77 H22         -4.7580    -2.3110    -2.8800 hc         1 SRV       0.033700
     78 H23         -6.7040    -2.4510    -1.3080 hc         1 SRV       0.040200
     79 H24         -5.6180    -2.2410     0.0670 hc         1 SRV       0.040200
     80 H25         -4.9490     0.0170    -0.8000 hc         1 SRV       0.034200
     81 H26         -6.0330    -0.1860    -2.1760 hc         1 SRV       0.034200
     82 H27         -8.0010    -0.2850    -0.6380 hc         1 SRV       0.039200
     83 H28         -6.9220    -0.1570     0.7550 hc         1 SRV       0.039200
     84 H29         -6.1940     2.1090     0.0280 hc         1 SRV       0.035200
     85 H30         -7.1400     1.9640    -1.4460 hc         1 SRV       0.035200
     86 H31         -9.2480     1.9210    -0.1150 hc         1 SRV       0.044700
     87 H32         -7.4450     4.3340     0.4400 hc         1 SRV       0.036200
     88 H33         -8.2880     4.0170    -1.0690 hc         1 SRV       0.036200
     89 H34        -10.5000     4.1750     0.1570 hc         1 SRV       0.037700
     90 H35         -9.6230     4.6170     1.6250 hc         1 SRV       0.037700
     91 H36         -8.6420     6.6010     0.4410 hc         1 SRV       0.036200
     92 H37         -9.5660     6.1880    -1.0020 hc         1 SRV       0.036200
     93 H38        -11.7060     6.4880     0.2860 hc         1 SRV       0.036700
     94 H39        -10.7760     6.8990     1.7290 hc         1 SRV       0.036700
     95 H40         -9.7870     8.8740     0.5160 hc         1 SRV       0.036700
     96 H41        -10.7450     8.4710    -0.9080 hc         1 SRV       0.036700
     97 H42        -12.8540     8.8200     0.4140 hc         1 SRV       0.036700
     98 H43        -11.8940     9.2160     1.8400 hc         1 SRV       0.036700
     99 H44          2.1510    -3.8740    -0.3690 hc         1 SRV       0.077700
    100 H45          3.5370    -4.3740     0.6550 hc         1 SRV       0.077700
    101 H46          5.0910    -3.8300    -1.2340 hc         1 SRV       0.057700
    102 H47          3.7240    -3.2930    -2.2130 hc         1 SRV       0.057700
    103 H48          3.2310    -1.4730    -0.5940 hc         1 SRV       0.047700
    104 H49          4.4890    -2.0600     0.4930 hc         1 SRV       0.047700
    105 H50          6.2330    -1.5670    -1.2450 hc         1 SRV       0.035700
    106 H51          4.9820    -0.9520    -2.3280 hc         1 SRV       0.035700
    107 H52          4.4210     0.8530    -0.7060 hc         1 SRV       0.038700
    108 H53          5.5800     0.2000     0.4540 hc         1 SRV       0.038700
    109 H54          7.4560     0.6650    -1.1520 hc         1 SRV       0.034200
    110 H55          6.3030     1.3480    -2.3020 hc         1 SRV       0.034200
    111 H56          5.6950     3.1350    -0.6720 hc         1 SRV       0.037200
    112 H57          6.7610     2.4200     0.5390 hc         1 SRV       0.037200
    113 H58          8.7420     2.8530    -0.9510 hc         1 SRV       0.035200
    114 H59          7.6770     3.6040    -2.1440 hc         1 SRV       0.035200
    115 H60          7.0370     5.3660    -0.4940 hc         1 SRV       0.037200
    116 H61          8.0270     4.5900     0.7430 hc         1 SRV       0.037200
    117 H62         10.0840     5.0020    -0.6410 hc         1 SRV       0.035700
    118 H63          9.0970     5.8000    -1.8690 hc         1 SRV       0.035700
    119 H64          8.4190     7.5450    -0.2070 hc         1 SRV       0.036700
    120 H65          9.3560     6.7300     1.0480 hc         1 SRV       0.036700
    121 H66         11.4630     7.1290    -0.2640 hc         1 SRV       0.036200
    122 H67         10.5280     7.9570    -1.5130 hc         1 SRV       0.036200
    123 H68          9.8150     9.6870     0.1560 hc         1 SRV       0.036200
    124 H69         10.7210     8.8510     1.4210 hc         1 SRV       0.036200
    125 H70         12.8570     9.2530     0.1630 hc         1 SRV       0.036200
    126 H71         11.9550    10.0890    -1.1060 hc         1 SRV       0.036200
    127 H72         11.2070    11.8180     0.5600 hc         1 SRV       0.036200
    128 H73         12.0940    10.9790     1.8360 hc         1 SRV       0.036200
    129 H74         14.2600    11.4150     0.6330 hc         1 SRV       0.029700
    130 H75         13.3690    12.2540    -0.6620 hc         1 SRV       0.029700
    131 H76         13.3920    12.9280     0.9840 hc         1 SRV       0.029700
    132 H77        -12.9220    12.6250     0.5160 hc         1 SRV       0.030033
    133 H78        -13.9750    11.1920     0.5290 hc         1 SRV       0.030033
    134 H79        -12.9890    11.5870     1.9570 hc         1 SRV       0.030033
    135 H80        -10.8980    11.1800     0.6180 hc         1 SRV       0.036200
    136 H81        -11.8720    10.7890    -0.7980 hc         1 SRV       0.036200
    137 H82         -9.2510     2.4950     2.3200 hc         1 SRV       0.032033
    138 H83         -8.4060     0.9810     2.0420 hc         1 SRV       0.032033
    139 H84         -7.4740     2.4660     2.3370 hc         1 SRV       0.032033
@<TRIPOS>BOND
     1     1     2 1   
     2     1    57 1   
     3     2     3 1   
     4     2    10 1   
     5     2    58 1   
     6     3     4 1   
     7     3     5 1   
     8     3    59 1   
     9     4    60 1   
    10     5     6 1   
    11     5     7 1   
    12     5    61 1   
    13     6    62 1   
    14     7     8 1   
    15     7     9 1   
    16     7    63 1   
    17     8    14 1   
    18     9    10 1   
    19    10    11 1   
    20    10    64 1   
    21    11    12 1   
    22    11    13 1   
    23    14    16 1   
    24    14    65 1   
    25    14    66 1   
    26    15    18 1   
    27    15    20 1   
    28    16    17 1   
    29    16    18 1   
    30    16    67 1   
    31    17    37 1   
    32    18    68 1   
    33    18    69 1   
    34    19    37 2   
    35    20    21 2   
    36    20    22 1   
    37    22    23 1   
    38    22    70 1   
    39    22    71 1   
    40    23    24 1   
    41    23    72 1   
    42    23    73 1   
    43    24    25 1   
    44    24    74 1   
    45    24    75 1   
    46    25    26 1   
    47    25    76 1   
    48    25    77 1   
    49    26    27 1   
    50    26    78 1   
    51    26    79 1   
    52    27    28 1   
    53    27    80 1   
    54    27    81 1   
    55    28    29 1   
    56    28    82 1   
    57    28    83 1   
    58    29    30 1   
    59    29    84 1   
    60    29    85 1   
    61    30    31 1   
    62    30    56 1   
    63    30    86 1   
    64    31    32 1   
    65    31    87 1   
    66    31    88 1   
    67    32    33 1   
    68    32    89 1   
    69    32    90 1   
    70    33    34 1   
    71    33    91 1   
    72    33    92 1   
    73    34    35 1   
    74    34    93 1   
    75    34    94 1   
    76    35    36 1   
    77    35    95 1   
    78    35    96 1   
    79    36    55 1   
    80    36    97 1   
    81    36    98 1   
    82    37    38 1   
    83    38    39 1   
    84    38    99 1   
    85    38   100 1   
    86    39    40 1   
    87    39   101 1   
    88    39   102 1   
    89    40    41 1   
    90    40   103 1   
    91    40   104 1   
    92    41    42 1   
    93    41   105 1   
    94    41   106 1   
    95    42    43 1   
    96    42   107 1   
    97    42   108 1   
    98    43    44 1   
    99    43   109 1   
   100    43   110 1   
   101    44    45 1   
   102    44   111 1   
   103    44   112 1   
   104    45    46 1   
   105    45   113 1   
   106    45   114 1   
   107    46    47 1   
   108    46   115 1   
   109    46   116 1   
   110    47    48 1   
   111    47   117 1   
   112    47   118 1   
   113    48    49 1   
   114    48   119 1   
   115    48   120 1   
   116    49    50 1   
   117    49   121 1   
   118    49   122 1   
   119    50    51 1   
   120    50   123 1   
   121    50   124 1   
   122    51    52 1   
   123    51   125 1   
   124    51   126 1   
   125    52    53 1   
   126    52   127 1   
   127    52   128 1   
   128    53   129 1   
   129    53   130 1   
   130    53   131 1   
   131    54    55 1   
   132    54   132 1   
   133    54   133 1   
   134    54   134 1   
   135    55   135 1   
   136    55   136 1   
   137    56   137 1   
   138    56   138 1   
   139    56   139 1   
@<TRIPOS>SUBSTRUCTURE
     1 SRV         1 TEMP              0 ****  ****    0 ROOT
