@<TRIPOS>MOLECULE
SRV
  139   139     1     0     0
SMALL
abcg2


@<TRIPOS>ATOM
      1 O4           0.8620    -1.4240     2.0440 oh         1 SRV      -0.791000
      2 C4           0.8540    -2.8240     2.1340 c6         1 SRV       0.135300
      3 C3          -0.5250    -3.3340     1.7310 c6         1 SRV       0.166300
      4 O3          -1.5230    -2.8890     2.6210 oh         1 SRV      -0.670000
      5 C2          -0.5220    -4.8530     1.7400 c6         1 SRV       0.156300
      6 O2          -1.7720    -5.3150     1.3050 oh         1 SRV      -0.704000
      7 C1           0.6280    -5.3850     0.8730 c6         1 SRV       0.340300
      8 O1           0.3420    -5.0840    -0.4520 os         1 SRV      -0.459000
      9 O5           1.8550    -4.8540     1.2850 os         1 SRV      -0.430000
     10 C5           1.9210    -3.4440     1.2220 c6         1 SRV      -0.023700
     11 C6           3.3390    -2.9660     1.5860 c          1 SRV       0.725000
     12 O6A          4.2550    -3.7870     1.6440 o          1 SRV      -0.704000
     13 O6B          3.4260    -1.7200     1.7710 o          1 SRV      -0.704000
     14 C7           1.1110    -5.7670    -1.4110 c3         1 SRV       0.146600
     15 O7          -0.7950    -3.7240    -2.5570 os         1 SRV      -0.404100
     16 C8           1.2860    -4.9250    -2.6640 c3         1 SRV       0.168300
     17 O8           1.9700    -3.7020    -2.3750 os         1 SRV      -0.431100
     18 C9           0.0020    -4.5680    -3.3800 c3         1 SRV       0.170600
     19 O9           3.9740    -4.6880    -2.4920 o          1 SRV      -0.503000
     20 C10         -2.1160    -3.7890    -2.6580 c          1 SRV       0.603100
     21 O10         -2.6880    -4.4340    -3.5030 o          1 SRV      -0.525000
     22 C11         -2.7990    -2.9960    -1.5790 c3         1 SRV      -0.145400
     23 C12         -4.2050    -2.5540    -1.9560 c3         1 SRV      -0.064400
     24 C13         -4.9060    -1.8040    -0.8310 c3         1 SRV      -0.076400
     25 C14         -6.2820    -1.3040    -1.2500 c3         1 SRV      -0.074400
     26 C15         -7.0220    -0.5220    -0.1720 c3         1 SRV      -0.073400
     27 C16         -8.3600     0.0130    -0.6680 c3         1 SRV      -0.076400
     28 C17         -9.1090     0.8770     0.3390 c3         1 SRV      -0.072400
     29 C18        -10.3920     1.4490    -0.2540 c3         1 SRV      -0.074400
     30 C19        -11.2140     2.3600     0.6600 c3         1 SRV      -0.055700
     31 C20        -12.5200     2.7330    -0.0500 c3         1 SRV      -0.073400
     32 C21        -13.5060     3.5590     0.7660 c3         1 SRV      -0.072400
     33 C22        -14.8040     3.8260     0.0110 c3         1 SRV      -0.075400
     34 C23        -15.8000     4.6720     0.7930 c3         1 SRV      -0.074400
     35 C24        -17.0840     4.9530     0.0210 c3         1 SRV      -0.074400
     36 C25        -18.0810     5.8030     0.7960 c3         1 SRV      -0.075400
     37 C26          3.3010    -3.7070    -2.2970 c          1 SRV       0.603100
     38 C27          3.8360    -2.3440    -1.9520 c3         1 SRV      -0.131400
     39 C28          5.3290    -2.3400    -1.6650 c3         1 SRV      -0.064400
     40 C29          5.8270    -0.9620    -1.2480 c3         1 SRV      -0.077400
     41 C30          7.3430    -0.9130    -1.1090 c3         1 SRV      -0.070400
     42 C31          7.8740     0.4480    -0.6770 c3         1 SRV      -0.074400
     43 C32          9.3960     0.5150    -0.6760 c3         1 SRV      -0.074400
     44 C33          9.9500     1.8620    -0.2290 c3         1 SRV      -0.074400
     45 C34         11.4700     1.9340    -0.3050 c3         1 SRV      -0.074400
     46 C35         12.0400     3.2710     0.1530 c3         1 SRV      -0.074400
     47 C36         13.5580     3.3400     0.0430 c3         1 SRV      -0.074400
     48 C37         14.1400     4.6700     0.5050 c3         1 SRV      -0.074400
     49 C38         15.6580     4.7350     0.3830 c3         1 SRV      -0.074400
     50 C39         16.2460     6.0620     0.8480 c3         1 SRV      -0.074400
     51 C40         17.7630     6.1220     0.7250 c3         1 SRV      -0.075400
     52 C41         18.3560     7.4460     1.1900 c3         1 SRV      -0.075400
     53 C42         19.8730     7.4910     1.0650 c3         1 SRV      -0.088100
     54 C43        -20.3520     6.9360     0.8080 c3         1 SRV      -0.088100
     55 C44        -19.3630     6.0860     0.0220 c3         1 SRV      -0.075400
     56 C45        -10.4220     3.5970     1.0740 c3         1 SRV      -0.087100
     57 H1           1.8230    -1.2090     1.9650 ho         1 SRV       0.577000
     58 H2           1.0520    -3.1570     3.1680 h1         1 SRV       0.037700
     59 H3          -0.7310    -2.9860     0.7080 h1         1 SRV       0.054700
     60 H4          -1.5550    -1.9290     2.5680 ho         1 SRV       0.452000
     61 H5          -0.3160    -5.1890     2.7680 h1         1 SRV       0.049700
     62 H6          -1.7970    -6.2720     1.4050 ho         1 SRV       0.489000
     63 H7           0.7260    -6.4710     1.0180 h2         1 SRV       0.041700
     64 H8           1.7220    -3.0950     0.1990 h1         1 SRV       0.050700
     65 H10          2.1010    -6.0310    -1.0270 h1         1 SRV       0.043200
     66 H11          0.6230    -6.7060    -1.7030 h1         1 SRV       0.043200
     67 H12          1.8650    -5.5280    -3.3710 h1         1 SRV       0.060700
     68 H13         -0.5210    -5.4930    -3.6320 h1         1 SRV       0.049700
     69 H14          0.2290    -4.0510    -4.3160 h1         1 SRV       0.049700
     70 H15         -2.8210    -3.6380    -0.6900 hc         1 SRV       0.090700
     71 H16         -2.1830    -2.1370    -1.3060 hc         1 SRV       0.090700
     72 H17         -4.1580    -1.9120    -2.8410 hc         1 SRV       0.043700
     73 H18         -4.8040    -3.4240    -2.2380 hc         1 SRV       0.043700
     74 H19         -4.9970    -2.4560     0.0440 hc         1 SRV       0.045200
     75 H20         -4.2920    -0.9530    -0.5140 hc         1 SRV       0.045200
     76 H21         -6.1750    -0.6680    -2.1360 hc         1 SRV       0.033700
     77 H22         -6.8950    -2.1560    -1.5670 hc         1 SRV       0.033700
     78 H23         -7.1770    -1.1590     0.7060 hc         1 SRV       0.040200
     79 H24         -6.3990     0.3140     0.1640 hc         1 SRV       0.040200
     80 H25         -8.1870     0.6030    -1.5760 hc         1 SRV       0.034200
     81 H26         -8.9930    -0.8260    -0.9750 hc         1 SRV       0.034200
     82 H27         -9.3440     0.2910     1.2340 hc         1 SRV       0.039200
     83 H28         -8.4520     1.6880     0.6700 hc         1 SRV       0.039200
     84 H29        -10.1410     2.0080    -1.1650 hc         1 SRV       0.035200
     85 H30        -11.0240     0.6150    -0.5820 hc         1 SRV       0.035200
     86 H31        -11.4740     1.7970     1.5670 hc         1 SRV       0.044700
     87 H32        -12.2750     3.2730    -0.9730 hc         1 SRV       0.036200
     88 H33        -13.0170     1.8100    -0.3680 hc         1 SRV       0.036200
     89 H34        -13.7310     3.0420     1.7060 hc         1 SRV       0.037700
     90 H35        -13.0590     4.5180     1.0470 hc         1 SRV       0.037700
     91 H36        -14.5710     4.3270    -0.9360 hc         1 SRV       0.036200
     92 H37        -15.2710     2.8730    -0.2610 hc         1 SRV       0.036200
     93 H38        -16.0450     4.1690     1.7350 hc         1 SRV       0.036700
     94 H39        -15.3300     5.6220     1.0720 hc         1 SRV       0.036700
     95 H40        -16.8360     5.4540    -0.9210 hc         1 SRV       0.036700
     96 H41        -17.5550     4.0030    -0.2580 hc         1 SRV       0.036700
     97 H42        -18.3310     5.3020     1.7380 hc         1 SRV       0.036700
     98 H43        -17.6110     6.7520     1.0760 hc         1 SRV       0.036700
     99 H44          3.6040    -1.6720    -2.7850 hc         1 SRV       0.077700
    100 H45          3.2800    -1.9490    -1.0970 hc         1 SRV       0.077700
    101 H46          5.5490    -3.0550    -0.8700 hc         1 SRV       0.057700
    102 H47          5.8760    -2.6720    -2.5520 hc         1 SRV       0.057700
    103 H48          5.5120    -0.2150    -1.9860 hc         1 SRV       0.047700
    104 H49          5.3520    -0.6820    -0.3020 hc         1 SRV       0.047700
    105 H50          7.6700    -1.6740    -0.3920 hc         1 SRV       0.035700
    106 H51          7.7970    -1.1870    -2.0680 hc         1 SRV       0.035700
    107 H52          7.4810     1.2210    -1.3470 hc         1 SRV       0.038700
    108 H53          7.4920     0.6900     0.3210 hc         1 SRV       0.038700
    109 H54          9.7960    -0.2740    -0.0300 hc         1 SRV       0.034200
    110 H55          9.7630     0.2930    -1.6850 hc         1 SRV       0.034200
    111 H56          9.5180     2.6570    -0.8480 hc         1 SRV       0.037200
    112 H57          9.6230     2.0670     0.7970 hc         1 SRV       0.037200
    113 H58         11.9030     1.1300     0.3000 hc         1 SRV       0.035200
    114 H59         11.7880     1.7400    -1.3350 hc         1 SRV       0.035200
    115 H60         11.5960     4.0780    -0.4400 hc         1 SRV       0.037200
    116 H61         11.7410     3.4580     1.1900 hc         1 SRV       0.037200
    117 H62         14.0020     2.5270     0.6280 hc         1 SRV       0.035700
    118 H63         13.8540     3.1590    -0.9970 hc         1 SRV       0.035700
    119 H64         13.6940     5.4850    -0.0760 hc         1 SRV       0.036700
    120 H65         13.8520     4.8490     1.5470 hc         1 SRV       0.036700
    121 H66         16.1030     3.9180     0.9620 hc         1 SRV       0.036200
    122 H67         15.9450     4.5570    -0.6590 hc         1 SRV       0.036200
    123 H68         15.8020     6.8790     0.2690 hc         1 SRV       0.036200
    124 H69         15.9590     6.2400     1.8900 hc         1 SRV       0.036200
    125 H70         18.2070     5.3030     1.3040 hc         1 SRV       0.036200
    126 H71         18.0510     5.9440    -0.3170 hc         1 SRV       0.036200
    127 H72         17.9140     8.2630     0.6110 hc         1 SRV       0.036200
    128 H73         18.0700     7.6250     2.2320 hc         1 SRV       0.036200
    129 H74         20.3390     6.7070     1.6650 hc         1 SRV       0.029700
    130 H75         20.1890     7.3430     0.0310 hc         1 SRV       0.029700
    131 H76         20.2770     8.4470     1.3990 hc         1 SRV       0.029700
    132 H77        -21.2650     7.1200     0.2420 hc         1 SRV       0.030033
    133 H78        -20.6340     6.4460     1.7420 hc         1 SRV       0.030033
    134 H79        -19.9190     7.9050     1.0650 hc         1 SRV       0.030033
    135 H80        -19.1140     6.5880    -0.9180 hc         1 SRV       0.036200
    136 H81        -19.8340     5.1380    -0.2580 hc         1 SRV       0.036200
    137 H82        -11.0010     4.2580     1.7190 hc         1 SRV       0.032033
    138 H83         -9.5140     3.3340     1.6170 hc         1 SRV       0.032033
    139 H84        -10.1220     4.1730     0.1930 hc         1 SRV       0.032033
@<TRIPOS>BOND
     1     1     2 1   
     2     1    57 1   
     3     2     3 1   
     4     2    10 1   
     5     2    58 1   
     6     3     4 1   
     7     3     5 1   
     8     3    59 1   
     9     4    60 1   
    10     5     6 1   
    11     5     7 1   
    12     5    61 1   
    13     6    62 1   
    14     7     8 1   
    15     7     9 1   
    16     7    63 1   
    17     8    14 1   
    18     9    10 1   
    19    10    11 1   
    20    10    64 1   
    21    11    12 1   
    22    11    13 1   
    23    14    16 1   
    24    14    65 1   
    25    14    66 1   
    26    15    18 1   
    27    15    20 1   
    28    16    17 1   
    29    16    18 1   
    30    16    67 1   
    31    17    37 1   
    32    18    68 1   
    33    18    69 1   
    34    19    37 2   
    35    20    21 2   
    36    20    22 1   
    37    22    23 1   
    38    22    70 1   
    39    22    71 1   
    40    23    24 1   
    41    23    72 1   
    42    23    73 1   
    43    24    25 1   
    44    24    74 1   
    45    24    75 1   
    46    25    26 1   
    47    25    76 1   
    48    25    77 1   
    49    26    27 1   
    50    26    78 1   
    51    26    79 1   
    52    27    28 1   
    53    27    80 1   
    54    27    81 1   
    55    28    29 1   
    56    28    82 1   
    57    28    83 1   
    58    29    30 1   
    59    29    84 1   
    60    29    85 1   
    61    30    31 1   
    62    30    56 1   
    63    30    86 1   
    64    31    32 1   
    65    31    87 1   
    66    31    88 1   
    67    32    33 1   
    68    32    89 1   
    69    32    90 1   
    70    33    34 1   
    71    33    91 1   
    72    33    92 1   
    73    34    35 1   
    74    34    93 1   
    75    34    94 1   
    76    35    36 1   
    77    35    95 1   
    78    35    96 1   
    79    36    55 1   
    80    36    97 1   
    81    36    98 1   
    82    37    38 1   
    83    38    39 1   
    84    38    99 1   
    85    38   100 1   
    86    39    40 1   
    87    39   101 1   
    88    39   102 1   
    89    40    41 1   
    90    40   103 1   
    91    40   104 1   
    92    41    42 1   
    93    41   105 1   
    94    41   106 1   
    95    42    43 1   
    96    42   107 1   
    97    42   108 1   
    98    43    44 1   
    99    43   109 1   
   100    43   110 1   
   101    44    45 1   
   102    44   111 1   
   103    44   112 1   
   104    45    46 1   
   105    45   113 1   
   106    45   114 1   
   107    46    47 1   
   108    46   115 1   
   109    46   116 1   
   110    47    48 1   
   111    47   117 1   
   112    47   118 1   
   113    48    49 1   
   114    48   119 1   
   115    48   120 1   
   116    49    50 1   
   117    49   121 1   
   118    49   122 1   
   119    50    51 1   
   120    50   123 1   
   121    50   124 1   
   122    51    52 1   
   123    51   125 1   
   124    51   126 1   
   125    52    53 1   
   126    52   127 1   
   127    52   128 1   
   128    53   129 1   
   129    53   130 1   
   130    53   131 1   
   131    54    55 1   
   132    54   132 1   
   133    54   133 1   
   134    54   134 1   
   135    55   135 1   
   136    55   136 1   
   137    56   137 1   
   138    56   138 1   
   139    56   139 1   
@<TRIPOS>SUBSTRUCTURE
     1 SRV         1 TEMP              0 ****  ****    0 ROOT
