@<TRIPOS>MOLECULE
SRW
   64    68     1     0     0
SMALL
No Charge or Current Charge


@<TRIPOS>ATOM
      1 C1         -13.1710   -61.5720    16.1180 c3         1 SRW       0.149900
      2 O1         -12.6400   -60.2350    16.1260 os         1 SRW      -0.360100
      3 C2         -12.8590   -59.3500    17.1680 ca         1 SRW       0.123100
      4 C3         -12.2570   -58.0650    17.1110 ca         1 SRW      -0.094300
      5 C4         -12.4960   -57.1610    18.1740 ca         1 SRW      -0.065000
      6 C5         -13.2930   -57.5290    19.2700 ca         1 SRW      -0.138000
      7 C6         -13.8770   -58.8010    19.3220 ca         1 SRW      -0.075000
      8 C7         -13.6670   -59.7070    18.2730 ca         1 SRW      -0.197000
      9 C8         -11.3560   -57.6940    15.8970 c6         1 SRW       0.010600
     10 C9         -11.1160   -56.1720    15.6380 c6         1 SRW      -0.084400
     11 C10        -10.0640   -55.5070    16.5760 c6         1 SRW       0.226300
     12 N1          -9.3250   -56.5110    17.3850 nh         1 SRW      -0.793300
     13 C11         -8.8310   -57.6710    16.6090 c6         1 SRW       0.226300
     14 C12         -9.9880   -58.4480    15.9210 c6         1 SRW      -0.084400
     15 C13         -8.7440   -56.1720    18.6260 ca         1 SRW       0.406900
     16 N2          -8.1000   -54.9920    18.6650 nb         1 SRW      -0.291000
     17 C14         -7.5360   -54.6410    19.8400 ca         1 SRW       0.162300
     18 N3          -7.5620   -55.3620    20.9810 nb         1 SRW      -0.161000
     19 C15         -8.2180   -56.5410    20.9640 ca         1 SRW       0.002000
     20 C16         -8.8420   -56.9970    19.7780 ca         1 SRW      -0.110000
     21 C17         -9.5520   -58.2200    19.7850 ca         1 SRW      -0.170000
     22 C18         -9.6380   -59.0030    20.9500 ca         1 SRW       0.322000
     23 C19         -9.0050   -58.5450    22.1190 ca         1 SRW      -0.125000
     24 C20         -8.3030   -57.3280    22.1260 ca         1 SRW      -0.067000
     25 N4         -10.3510   -60.2270    20.9460 nh         1 SRW      -0.825400
     26 C21        -10.4020   -61.0700    19.7290 c3         1 SRW       0.206100
     27 C22        -11.3460   -60.5260    22.0170 c3         1 SRW       0.226800
     28 C23        -11.0720   -61.7990    22.8770 c3         1 SRW       0.146600
     29 O2          -9.8950   -61.6600    23.6980 oh         1 SRW      -0.660000
     30 C24         -6.8050   -53.3220    19.8820 cx         1 SRW       0.097700
     31 F1          -5.4810   -53.4870    19.5960 f          1 SRW      -0.221000
     32 C25         -7.1750   -52.2530    20.8870 cx         1 SRW      -0.128900
     33 C26         -7.4660   -52.0410    19.4220 cx         1 SRW      -0.128900
     34 H1         -12.8630   -62.0970    15.2050 h1         1 SRW       0.040033
     35 H2         -12.8020   -62.1430    16.9790 h1         1 SRW       0.040033
     36 H3         -14.2680   -61.5570    16.1470 h1         1 SRW       0.040033
     37 H4         -12.0620   -56.1690    18.1780 ha         1 SRW       0.120000
     38 H5         -13.4560   -56.8250    20.0820 ha         1 SRW       0.119000
     39 H6         -14.4940   -59.0830    20.1720 ha         1 SRW       0.112000
     40 H7         -14.1360   -60.6840    18.3390 ha         1 SRW       0.112000
     41 H8         -11.8960   -58.0540    15.0100 hc         1 SRW       0.060700
     42 H9         -10.7650   -56.0530    14.6050 hc         1 SRW       0.047950
     43 H10        -12.0650   -55.6220    15.6880 hc         1 SRW       0.047950
     44 H11         -9.3620   -54.9140    15.9710 h1         1 SRW       0.051200
     45 H12        -10.5800   -54.7990    17.2410 h1         1 SRW       0.051200
     46 H13         -8.2630   -58.3610    17.2500 h1         1 SRW       0.051200
     47 H14         -8.1320   -57.3170    15.8360 h1         1 SRW       0.051200
     48 H15        -10.1050   -59.4220    16.4120 hc         1 SRW       0.047950
     49 H16         -9.6820   -58.6770    14.8910 hc         1 SRW       0.047950
     50 H17        -10.0620   -58.5540    18.8910 ha         1 SRW       0.124000
     51 H18         -9.0530   -59.1390    23.0260 ha         1 SRW       0.131000
     52 H19         -7.8250   -56.9910    23.0440 ha         1 SRW       0.134000
     53 H20        -10.6010   -62.1190    19.9870 h1         1 SRW       0.034700
     54 H21        -11.1930   -60.7240    19.0530 h1         1 SRW       0.034700
     55 H22         -9.4430   -61.0340    19.1960 h1         1 SRW       0.034700
     56 H23        -11.4370   -59.6680    22.6970 h1         1 SRW       0.052200
     57 H24        -12.3350   -60.6440    21.5530 h1         1 SRW       0.052200
     58 H25        -11.9480   -61.9770    23.5140 h1         1 SRW       0.025200
     59 H26        -10.9720   -62.6670    22.2120 h1         1 SRW       0.025200
     60 H27         -9.7480   -62.5280    24.1350 ho         1 SRW       0.443000
     61 H28         -6.3670   -51.6790    21.3340 hc         1 SRW       0.086200
     62 H29         -8.0170   -52.4450    21.5470 hc         1 SRW       0.086200
     63 H30         -6.8540   -51.3240    18.8800 hc         1 SRW       0.086200
     64 H31         -8.5030   -52.0910    19.0990 hc         1 SRW       0.086200
@<TRIPOS>BOND
     1     1     2 1   
     2     1    34 1   
     3     1    35 1   
     4     1    36 1   
     5     2     3 1   
     6     3     4 ar  
     7     3     8 ar  
     8     4     5 ar  
     9     4     9 1   
    10     5     6 ar  
    11     5    37 1   
    12     6     7 ar  
    13     6    38 1   
    14     7     8 ar  
    15     7    39 1   
    16     8    40 1   
    17     9    10 1   
    18     9    14 1   
    19     9    41 1   
    20    10    11 1   
    21    10    42 1   
    22    10    43 1   
    23    11    12 1   
    24    11    44 1   
    25    11    45 1   
    26    12    13 1   
    27    12    15 1   
    28    13    14 1   
    29    13    46 1   
    30    13    47 1   
    31    14    48 1   
    32    14    49 1   
    33    15    16 ar  
    34    15    20 ar  
    35    16    17 ar  
    36    17    18 ar  
    37    17    30 1   
    38    18    19 ar  
    39    19    20 ar  
    40    19    24 ar  
    41    20    21 ar  
    42    21    22 ar  
    43    21    50 1   
    44    22    23 ar  
    45    22    25 1   
    46    23    24 ar  
    47    23    51 1   
    48    24    52 1   
    49    25    26 1   
    50    25    27 1   
    51    26    53 1   
    52    26    54 1   
    53    26    55 1   
    54    27    28 1   
    55    27    56 1   
    56    27    57 1   
    57    28    29 1   
    58    28    58 1   
    59    28    59 1   
    60    29    60 1   
    61    30    31 1   
    62    30    32 1   
    63    30    33 1   
    64    32    33 1   
    65    32    61 1   
    66    32    62 1   
    67    33    63 1   
    68    33    64 1   
@<TRIPOS>SUBSTRUCTURE
     1 SRW         1 TEMP              0 ****  ****    0 ROOT
