@<TRIPOS>MOLECULE
SRW
   64    68     1     0     0
SMALL
abcg2


@<TRIPOS>ATOM
      1 C1         -13.6380   -60.9060    16.7510 c3         1 SRW       0.149900
      2 O1         -12.8210   -59.7570    16.5490 os         1 SRW      -0.360100
      3 C2         -12.9480   -58.7010    17.4020 ca         1 SRW       0.123100
      4 C3         -12.1360   -57.5810    17.1250 ca         1 SRW      -0.094300
      5 C4         -12.2780   -56.4710    17.9510 ca         1 SRW      -0.065000
      6 C5         -13.1480   -56.4630    19.0400 ca         1 SRW      -0.138000
      7 C6         -13.9090   -57.5890    19.3140 ca         1 SRW      -0.075000
      8 C7         -13.8180   -58.7080    18.4910 ca         1 SRW      -0.197000
      9 C8         -11.1680   -57.6520    15.9570 c6         1 SRW       0.010600
     10 C9         -10.5620   -56.3140    15.5070 c6         1 SRW      -0.084400
     11 C10         -9.5240   -55.7210    16.4920 c6         1 SRW       0.226300
     12 N1          -9.1790   -56.7140    17.4990 nh         1 SRW      -0.793300
     13 C11         -8.8160   -57.9970    16.9030 c6         1 SRW       0.226300
     14 C12        -10.0220   -58.6640    16.2200 c6         1 SRW      -0.084400
     15 C13         -8.8790   -56.3410    18.7690 ca         1 SRW       0.406900
     16 N2          -8.5490   -55.0720    18.9770 nb         1 SRW      -0.291000
     17 C14         -8.1770   -54.6910    20.2160 ca         1 SRW       0.162300
     18 N3          -8.0780   -55.4540    21.2760 nb         1 SRW      -0.161000
     19 C15         -8.5050   -56.7470    21.1230 ca         1 SRW       0.002000
     20 C16         -8.9750   -57.2530    19.8880 ca         1 SRW      -0.110000
     21 C17         -9.5820   -58.5200    19.8340 ca         1 SRW      -0.170000
     22 C18         -9.6470   -59.3470    20.9540 ca         1 SRW       0.322000
     23 C19         -9.0720   -58.8630    22.1640 ca         1 SRW      -0.125000
     24 C20         -8.5400   -57.6030    22.2440 ca         1 SRW      -0.067000
     25 N4         -10.2200   -60.6010    20.8910 nh         1 SRW      -0.825400
     26 C21        -10.7120   -61.0890    19.6160 c3         1 SRW       0.206100
     27 C22        -10.7810   -61.2500    22.0700 c3         1 SRW       0.226800
     28 C23        -10.0350   -62.5010    22.4940 c3         1 SRW       0.146600
     29 O2          -8.7400   -62.1340    22.9740 oh         1 SRW      -0.660000
     30 C24         -7.8200   -53.2480    20.3370 cx         1 SRW       0.097700
     31 F1          -7.4110   -52.8960    21.6120 f          1 SRW      -0.221000
     32 C25         -8.5800   -52.1900    19.5970 cx         1 SRW      -0.128900
     33 C26         -7.1490   -52.5000    19.2280 cx         1 SRW      -0.128900
     34 H1         -13.3780   -61.5990    15.9550 h1         1 SRW       0.040033
     35 H2         -13.4360   -61.3700    17.7200 h1         1 SRW       0.040033
     36 H3         -14.6990   -60.6520    16.6850 h1         1 SRW       0.040033
     37 H4         -11.6940   -55.5850    17.7580 ha         1 SRW       0.120000
     38 H5         -13.2200   -55.5840    19.6670 ha         1 SRW       0.119000
     39 H6         -14.5840   -57.6060    20.1610 ha         1 SRW       0.112000
     40 H7         -14.4230   -59.5760    18.7030 ha         1 SRW       0.112000
     41 H8         -11.7390   -58.0410    15.1120 hc         1 SRW       0.060700
     42 H9         -10.0780   -56.4940    14.5440 hc         1 SRW       0.047950
     43 H10        -11.3500   -55.5810    15.3280 hc         1 SRW       0.047950
     44 H11         -8.6260   -55.4010    15.9500 h1         1 SRW       0.051200
     45 H12         -9.9150   -54.8450    17.0000 h1         1 SRW       0.051200
     46 H13         -8.3690   -58.6410    17.6530 h1         1 SRW       0.051200
     47 H14         -8.0380   -57.7880    16.1600 h1         1 SRW       0.051200
     48 H15        -10.3960   -59.4910    16.8200 hc         1 SRW       0.047950
     49 H16         -9.6960   -59.0900    15.2690 hc         1 SRW       0.047950
     50 H17        -10.0510   -58.8330    18.9200 ha         1 SRW       0.124000
     51 H18         -9.0510   -59.4990    23.0360 ha         1 SRW       0.131000
     52 H19         -8.1430   -57.2370    23.1830 ha         1 SRW       0.134000
     53 H20        -10.9900   -62.1360    19.7220 h1         1 SRW       0.034700
     54 H21        -11.5890   -60.5310    19.2670 h1         1 SRW       0.034700
     55 H22         -9.9370   -61.0220    18.8510 h1         1 SRW       0.034700
     56 H23        -10.8120   -60.5470    22.9020 h1         1 SRW       0.052200
     57 H24        -11.8180   -61.5290    21.8580 h1         1 SRW       0.052200
     58 H25        -10.6100   -63.0020    23.2820 h1         1 SRW       0.025200
     59 H26         -9.9480   -63.1890    21.6460 h1         1 SRW       0.025200
     60 H27         -8.2250   -62.9390    23.1080 ho         1 SRW       0.443000
     61 H28         -8.7670   -51.2750    20.1420 hc         1 SRW       0.086200
     62 H29         -9.3680   -52.5220    18.9360 hc         1 SRW       0.086200
     63 H30         -6.3940   -51.7870    19.5320 hc         1 SRW       0.086200
     64 H31         -6.9550   -53.0420    18.3140 hc         1 SRW       0.086200
@<TRIPOS>BOND
     1     1     2 1   
     2     1    34 1   
     3     1    35 1   
     4     1    36 1   
     5     2     3 1   
     6     3     4 ar  
     7     3     8 ar  
     8     4     5 ar  
     9     4     9 1   
    10     5     6 ar  
    11     5    37 1   
    12     6     7 ar  
    13     6    38 1   
    14     7     8 ar  
    15     7    39 1   
    16     8    40 1   
    17     9    10 1   
    18     9    14 1   
    19     9    41 1   
    20    10    11 1   
    21    10    42 1   
    22    10    43 1   
    23    11    12 1   
    24    11    44 1   
    25    11    45 1   
    26    12    13 1   
    27    12    15 1   
    28    13    14 1   
    29    13    46 1   
    30    13    47 1   
    31    14    48 1   
    32    14    49 1   
    33    15    16 ar  
    34    15    20 ar  
    35    16    17 ar  
    36    17    18 ar  
    37    17    30 1   
    38    18    19 ar  
    39    19    20 ar  
    40    19    24 ar  
    41    20    21 ar  
    42    21    22 ar  
    43    21    50 1   
    44    22    23 ar  
    45    22    25 1   
    46    23    24 ar  
    47    23    51 1   
    48    24    52 1   
    49    25    26 1   
    50    25    27 1   
    51    26    53 1   
    52    26    54 1   
    53    26    55 1   
    54    27    28 1   
    55    27    56 1   
    56    27    57 1   
    57    28    29 1   
    58    28    58 1   
    59    28    59 1   
    60    29    60 1   
    61    30    31 1   
    62    30    32 1   
    63    30    33 1   
    64    32    33 1   
    65    32    61 1   
    66    32    62 1   
    67    33    63 1   
    68    33    64 1   
@<TRIPOS>SUBSTRUCTURE
     1 SRW         1 TEMP              0 ****  ****    0 ROOT
