@<TRIPOS>MOLECULE
SRZ
   23    22     1     0     0
SMALL
No Charge or Current Charge


@<TRIPOS>ATOM
      1 CZ         180.0390   -35.7510    20.8910 c3         1 SRZ       0.159600
      2 CE         179.2480   -35.5360    19.5850 c3         1 SRZ      -0.085400
      3 CD         179.6560   -36.5010    18.4540 c3         1 SRZ       0.154600
      4 OG         179.3520   -37.8420    18.8710 os         1 SRZ      -0.411000
      5 CB         179.6820   -38.8560    17.9030 c3         1 SRZ       0.180600
      6 CA         179.3110   -40.2560    18.4740 c3         1 SRZ       0.068500
      7 C          179.3650   -41.3010    17.2930 c          1 SRZ       0.627000
      8 O          180.4600   -41.6750    16.8920 o          1 SRZ      -0.746000
      9 N          180.1090   -40.6290    19.7180 n8         1 SRZ      -1.057200
     10 OH         179.6430   -34.7750    21.8630 oh         1 SRZ      -0.669000
     11 OXT        178.3160   -41.7890    16.8990 o          1 SRZ      -0.746000
     12 HZ1C       179.8500   -36.7640    21.2710 h1         1 SRZ       0.029700
     13 HZ2C       181.1140   -35.6640    20.6810 h1         1 SRZ       0.029700
     14 HE1C       178.1740   -35.6440    19.7820 hc         1 SRZ       0.043700
     15 HE2C       179.4050   -34.5080    19.2360 hc         1 SRZ       0.043700
     16 HH         180.1620   -34.9570    22.6780 ho         1 SRZ       0.421000
     17 HD1C       179.1000   -36.2460    17.5420 h1         1 SRZ       0.034200
     18 HD2C       180.7290   -36.3900    18.2460 h1         1 SRZ       0.034200
     19 HB1C       179.1170   -38.6860    16.9770 h1         1 SRZ       0.006200
     20 HB2C       180.7530   -38.8260    17.6590 h1         1 SRZ       0.006200
     21 HA         178.2550   -40.2010    18.7740 h1         1 SRZ       0.067700
     22 H          179.8010   -41.5550    20.0400 hn         1 SRZ       0.403500
     23 H2         181.0810   -40.8020    19.4290 hn         1 SRZ       0.403500
@<TRIPOS>BOND
     1     1     2 1   
     2     1    10 1   
     3     1    12 1   
     4     1    13 1   
     5     2     3 1   
     6     2    14 1   
     7     2    15 1   
     8     3     4 1   
     9     3    17 1   
    10     3    18 1   
    11     4     5 1   
    12     5     6 1   
    13     5    19 1   
    14     5    20 1   
    15     6     7 1   
    16     6     9 1   
    17     6    21 1   
    18     7     8 1   
    19     7    11 1   
    20     9    22 1   
    21     9    23 1   
    22    10    16 1   
@<TRIPOS>SUBSTRUCTURE
     1 SRZ         1 TEMP              0 ****  ****    0 ROOT
