@<TRIPOS>MOLECULE
SRZ
   23    22     1     0     0
SMALL
abcg2


@<TRIPOS>ATOM
      1 CZ         180.5810   -35.4540    20.4660 c3         1 SRZ       0.159600
      2 CE         179.1980   -35.7110    19.7530 c3         1 SRZ      -0.085400
      3 CD         179.2900   -36.6160    18.4910 c3         1 SRZ       0.154600
      4 OG         179.2800   -37.9890    19.0700 os         1 SRZ      -0.411000
      5 CB         179.5860   -38.8970    18.1140 c3         1 SRZ       0.180600
      6 CA         179.1110   -40.1480    18.1740 c3         1 SRZ       0.068500
      7 C          179.9540   -41.3020    17.7310 c          1 SRZ       0.627000
      8 O          181.1820   -41.4930    18.1750 o          1 SRZ      -0.746000
      9 N          178.8140   -40.6370    19.6370 n8         1 SRZ      -1.057200
     10 OH         180.2830   -35.5430    21.9720 oh         1 SRZ      -0.669000
     11 OXT        179.5190   -41.9820    16.6170 o          1 SRZ      -0.746000
     12 HZ1C       181.2910   -36.0840    20.0840 h1         1 SRZ       0.029700
     13 HZ2C       180.9780   -34.4600    20.3460 h1         1 SRZ       0.029700
     14 HE1C       178.4980   -36.0270    20.3930 hc         1 SRZ       0.043700
     15 HE2C       178.7570   -34.7360    19.3660 hc         1 SRZ       0.043700
     16 HH         181.2370   -35.5670    22.3350 ho         1 SRZ       0.421000
     17 HD1C       178.5390   -36.3420    17.8270 h1         1 SRZ       0.034200
     18 HD2C       180.2440   -36.3370    18.1680 h1         1 SRZ       0.034200
     19 HB1C       179.3430   -38.4710    16.9940 h1         1 SRZ       0.006200
     20 HB2C       180.8300   -38.9240    17.9940 h1         1 SRZ       0.006200
     21 HA         178.0830   -40.3740    17.6570 h1         1 SRZ       0.067700
     22 H          178.4760   -41.5710    19.7420 hn         1 SRZ       0.403500
     23 H2         179.6500   -40.4890    20.0510 hn         1 SRZ       0.403500
@<TRIPOS>BOND
     1     1     2 1   
     2     1    10 1   
     3     1    12 1   
     4     1    13 1   
     5     2     3 1   
     6     2    14 1   
     7     2    15 1   
     8     3     4 1   
     9     3    17 1   
    10     3    18 1   
    11     4     5 1   
    12     5     6 1   
    13     5    19 1   
    14     5    20 1   
    15     6     7 1   
    16     6     9 1   
    17     6    21 1   
    18     7     8 1   
    19     7    11 1   
    20     9    22 1   
    21     9    23 1   
    22    10    16 1   
@<TRIPOS>SUBSTRUCTURE
     1 SRZ         1 TEMP              0 ****  ****    0 ROOT
