@<TRIPOS>MOLECULE
SS0
   53    55     1     0     0
SMALL
abcg2


@<TRIPOS>ATOM
      1 C            4.8730    -2.4010    -0.0180 c3         1 SS0       0.149600
      2 N            3.5730    -2.3880    -0.6530 n3         1 SS0      -0.711600
      3 O           -2.3100     3.0200    -0.1980 os         1 SS0      -0.342100
      4 C01         -2.5280     1.6780    -0.1840 ca         1 SS0       0.134100
      5 N01         -3.2770    -2.3790    -0.2100 nc         1 SS0      -0.632100
      6 C02         -3.8140     1.2710    -0.5600 ca         1 SS0      -0.150000
      7 N02         -1.2290    -1.7460     0.4370 na         1 SS0      -0.212600
      8 C03         -4.1520    -0.0690    -0.6080 ca         1 SS0      -0.037000
      9 C04         -3.1890    -1.0060    -0.2520 ca         1 SS0       0.072400
     10 N04          2.5070     2.4440     0.4790 n3         1 SS0      -0.722600
     11 C05         -1.9110    -0.5770     0.1370 ca         1 SS0      -0.040200
     12 C06         -1.5260     0.7670     0.1610 ca         1 SS0      -0.157300
     13 C07         -2.1000    -2.7740     0.1910 cd         1 SS0       0.617700
     14 C08         -0.1350     1.2430     0.4860 c6         1 SS0      -0.010100
     15 C09          0.0750     2.6870     0.0540 c6         1 SS0      -0.100700
     16 C10         -1.1470     3.4860     0.4630 c6         1 SS0       0.162600
     17 C11          1.3370     3.2770     0.6730 c3         1 SS0       0.172800
     18 C12          0.1390    -1.8930     0.8850 c3         1 SS0       0.082600
     19 C13          2.9030     2.3530    -0.9080 c3         1 SS0       0.150100
     20 C14          3.6090     2.8800     1.3060 c3         1 SS0       0.150100
     21 C15          1.1370    -2.0660    -0.2540 c3         1 SS0      -0.102400
     22 C16          2.5590    -1.9130     0.2680 c3         1 SS0       0.162800
     23 C17          3.6110    -1.6250    -1.8810 c3         1 SS0       0.149600
     24 H            4.8510    -3.0340     0.8700 h1         1 SS0       0.030700
     25 HA           5.6190    -2.8100    -0.7010 h1         1 SS0       0.030700
     26 HB           5.2170    -1.4010     0.2930 h1         1 SS0       0.030700
     27 H02         -4.5440     2.0270    -0.8210 ha         1 SS0       0.127000
     28 H03         -5.1440    -0.3790    -0.9090 ha         1 SS0       0.130000
     29 HN03        -2.4860    -4.7260     0.3140 hn         1 SS0       0.467500
     30 HN0A        -1.0110    -4.3040     0.9790 hn         1 SS0       0.467500
     31 H08          0.0570     1.1650     1.5620 hc         1 SS0       0.055700
     32 H08A         0.6100     0.6130     0.0010 hc         1 SS0       0.055700
     33 H09          0.1420     2.7330    -1.0380 hc         1 SS0       0.066700
     34 H10         -1.0480     4.5390     0.1950 h1         1 SS0       0.051700
     35 H10A        -1.2860     3.4270     1.5510 h1         1 SS0       0.051700
     36 H11          1.1770     3.3770     1.7520 h1         1 SS0       0.033200
     37 H11A         1.4910     4.3000     0.2840 h1         1 SS0       0.033200
     38 H12          0.3890    -1.0260     1.4940 h1         1 SS0       0.052700
     39 H12A         0.1990    -2.7410     1.5690 h1         1 SS0       0.052700
     40 H13          3.1710     3.3270    -1.3480 h1         1 SS0       0.031533
     41 H13A         3.7680     1.6940    -1.0010 h1         1 SS0       0.031533
     42 H13B         2.1070     1.9190    -1.5150 h1         1 SS0       0.031533
     43 H14          3.3060     2.8990     2.3540 h1         1 SS0       0.031533
     44 H14A         4.4420     2.1810     1.2140 h1         1 SS0       0.031533
     45 H14B         3.9850     3.8830     1.0470 h1         1 SS0       0.031533
     46 H15          1.0120    -3.0520    -0.7080 hc         1 SS0       0.065200
     47 H15A         0.9240    -1.3280    -1.0310 hc         1 SS0       0.065200
     48 H16          2.6570    -2.4950     1.1900 h1         1 SS0       0.033200
     49 H16A         2.7260    -0.8550     0.5490 h1         1 SS0       0.033200
     50 H17          4.3930    -2.0160    -2.5330 h1         1 SS0       0.030700
     51 H17A         2.6690    -1.7040    -2.4250 h1         1 SS0       0.030700
     52 H17B         3.8170    -0.5540    -1.7190 h1         1 SS0       0.030700
     53 N03         -1.7160    -4.0760     0.2970 nv         1 SS0      -0.998200
@<TRIPOS>BOND
     1     1     2 1   
     2     1    24 1   
     3     1    25 1   
     4     1    26 1   
     5     2    22 1   
     6     2    23 1   
     7     3     4 1   
     8     3    16 1   
     9     4     6 ar  
    10     4    12 ar  
    11     5     9 1   
    12     5    13 2   
    13     6     8 ar  
    14     6    27 1   
    15     7    11 1   
    16     7    13 1   
    17     7    18 1   
    18     8     9 ar  
    19     8    28 1   
    20     9    11 ar  
    21    10    17 1   
    22    10    19 1   
    23    10    20 1   
    24    11    12 ar  
    25    12    14 1   
    26    13    53 1   
    27    14    15 1   
    28    14    31 1   
    29    14    32 1   
    30    15    16 1   
    31    15    17 1   
    32    15    33 1   
    33    16    34 1   
    34    16    35 1   
    35    17    36 1   
    36    17    37 1   
    37    18    21 1   
    38    18    38 1   
    39    18    39 1   
    40    19    40 1   
    41    19    41 1   
    42    19    42 1   
    43    20    43 1   
    44    20    44 1   
    45    20    45 1   
    46    21    22 1   
    47    21    46 1   
    48    21    47 1   
    49    22    48 1   
    50    22    49 1   
    51    23    50 1   
    52    23    51 1   
    53    23    52 1   
    54    29    53 1   
    55    30    53 1   
@<TRIPOS>SUBSTRUCTURE
     1 SS0         1 TEMP              0 ****  ****    0 ROOT
