@<TRIPOS>MOLECULE
SS0
   53    55     1     0     0
SMALL
No Charge or Current Charge


@<TRIPOS>ATOM
      1 C            4.9850    -2.5570    -0.1030 c3         1 SS0       0.149600
      2 N            3.6400    -2.4150    -0.7060 n3         1 SS0      -0.711600
      3 O           -2.3500     3.0370    -0.2460 os         1 SS0      -0.342100
      4 C01         -2.5970     1.6790    -0.2390 ca         1 SS0       0.134100
      5 N01         -3.3860    -2.4190    -0.2090 nc         1 SS0      -0.632100
      6 C02         -3.8810     1.2510    -0.6270 ca         1 SS0      -0.150000
      7 N02         -1.2540    -1.7890     0.4390 na         1 SS0      -0.212600
      8 C03         -4.2030    -0.1170    -0.6380 ca         1 SS0      -0.037000
      9 C04         -3.2240    -1.0430    -0.2550 ca         1 SS0       0.072400
     10 N04          2.5950     2.5420     0.4910 n3         1 SS0      -0.722600
     11 C05         -1.9580    -0.6350     0.1220 ca         1 SS0      -0.040200
     12 C06         -1.5930     0.7400     0.1260 ca         1 SS0      -0.157300
     13 C07         -2.1880    -2.8010     0.2020 cd         1 SS0       0.617700
     14 C08         -0.1910     1.2470     0.4990 c6         1 SS0      -0.010100
     15 C09          0.0540     2.7140     0.0730 c6         1 SS0      -0.100700
     16 C10         -1.1870     3.5480     0.4340 c6         1 SS0       0.162600
     17 C11          1.3420     3.3100     0.7150 c3         1 SS0       0.172800
     18 C12          0.1310    -1.9100     0.9350 c3         1 SS0       0.082600
     19 C13          2.9780     2.4190    -0.9350 c3         1 SS0       0.150100
     20 C14          3.7120     3.0430     1.3220 c3         1 SS0       0.150100
     21 C15          1.1570    -2.1270    -0.1970 c3         1 SS0      -0.102400
     22 C16          2.6150    -2.0550     0.3060 c3         1 SS0       0.162800
     23 C17          3.6600    -1.5160    -1.8850 c3         1 SS0       0.149600
     24 H            4.9700    -3.2900     0.7140 h1         1 SS0       0.030700
     25 HA           5.7110    -2.9020    -0.8510 h1         1 SS0       0.030700
     26 HB           5.3360    -1.5980     0.3010 h1         1 SS0       0.030700
     27 H02         -4.6290     1.9850    -0.9150 ha         1 SS0       0.127000
     28 H03         -5.1940    -0.4520    -0.9350 ha         1 SS0       0.130000
     29 HN03        -2.7330    -4.7190     0.4120 hn         1 SS0       0.467500
     30 HN0A        -1.1450    -4.3550     0.9800 hn         1 SS0       0.467500
     31 H08         -0.0570     1.1570     1.5860 hc         1 SS0       0.055700
     32 H08A         0.5780     0.6290     0.0260 hc         1 SS0       0.055700
     33 H09          0.1790     2.7570    -1.0160 hc         1 SS0       0.066700
     34 H10         -1.0440     4.5990     0.1480 h1         1 SS0       0.051700
     35 H10A        -1.3650     3.5080     1.5180 h1         1 SS0       0.051700
     36 H11          1.1590     3.3870     1.7960 h1         1 SS0       0.033200
     37 H11A         1.4670     4.3360     0.3420 h1         1 SS0       0.033200
     38 H12          0.3930    -1.0300     1.5280 h1         1 SS0       0.052700
     39 H12A         0.1830    -2.7630     1.6230 h1         1 SS0       0.052700
     40 H13          3.1250     3.4090    -1.3880 h1         1 SS0       0.031533
     41 H13A         3.9150     1.8550    -1.0360 h1         1 SS0       0.031533
     42 H13B         2.2110     1.8850    -1.5090 h1         1 SS0       0.031533
     43 H14          3.4370     3.0430     2.3850 h1         1 SS0       0.031533
     44 H14A         4.5990     2.4070     1.2040 h1         1 SS0       0.031533
     45 H14B         3.9830     4.0680     1.0360 h1         1 SS0       0.031533
     46 H15          0.9800    -3.1060    -0.6590 hc         1 SS0       0.065200
     47 H15A         0.9970    -1.3740    -0.9760 hc         1 SS0       0.065200
     48 H16          2.7010    -2.7390     1.1620 h1         1 SS0       0.033200
     49 H16A         2.8050    -1.0420     0.6870 h1         1 SS0       0.033200
     50 H17          4.4410    -1.8250    -2.5930 h1         1 SS0       0.030700
     51 H17A         2.7040    -1.5400    -2.4220 h1         1 SS0       0.030700
     52 H17B         3.8630    -0.4800    -1.5830 h1         1 SS0       0.030700
     53 N03         -1.9280    -4.1040     0.3910 nv         1 SS0      -0.998200
@<TRIPOS>BOND
     1     1     2 1   
     2     1    24 1   
     3     1    25 1   
     4     1    26 1   
     5     2    22 1   
     6     2    23 1   
     7     3     4 1   
     8     3    16 1   
     9     4     6 ar  
    10     4    12 ar  
    11     5     9 1   
    12     5    13 2   
    13     6     8 ar  
    14     6    27 1   
    15     7    11 1   
    16     7    13 1   
    17     7    18 1   
    18     8     9 ar  
    19     8    28 1   
    20     9    11 ar  
    21    10    17 1   
    22    10    19 1   
    23    10    20 1   
    24    11    12 ar  
    25    12    14 1   
    26    13    53 1   
    27    14    15 1   
    28    14    31 1   
    29    14    32 1   
    30    15    16 1   
    31    15    17 1   
    32    15    33 1   
    33    16    34 1   
    34    16    35 1   
    35    17    36 1   
    36    17    37 1   
    37    18    21 1   
    38    18    38 1   
    39    18    39 1   
    40    19    40 1   
    41    19    41 1   
    42    19    42 1   
    43    20    43 1   
    44    20    44 1   
    45    20    45 1   
    46    21    22 1   
    47    21    46 1   
    48    21    47 1   
    49    22    48 1   
    50    22    49 1   
    51    23    50 1   
    52    23    51 1   
    53    23    52 1   
    54    29    53 1   
    55    30    53 1   
@<TRIPOS>SUBSTRUCTURE
     1 SS0         1 TEMP              0 ****  ****    0 ROOT
