@<TRIPOS>MOLECULE
SS1
   19    19     1     0     0
SMALL
bcc


@<TRIPOS>ATOM
      1 O1          -2.3450     0.8560     0.7700 oh         1 SS1      -0.588800
      2 C1          -1.6740    -0.2790     0.2710 c3         1 SS1       0.192400
      3 C2          -0.1750    -0.0750     0.1700 ca         1 SS1      -0.109300
      4 C3           0.6740    -1.1710     0.3060 ca         1 SS1      -0.119000
      5 C4           2.0480    -1.0300     0.1700 ca         1 SS1      -0.127500
      6 C5           2.5950     0.2180    -0.1030 ca         1 SS1      -0.128000
      7 C6           1.7560     1.3170    -0.2360 ca         1 SS1      -0.127500
      8 C7           0.3810     1.1710    -0.0980 ca         1 SS1      -0.119000
      9 C8          -2.2390    -0.7290    -1.0720 c3         1 SS1      -0.127100
     10 HO1         -2.5150     1.4650     0.0440 ho         1 SS1       0.400000
     11 H1          -1.8530    -1.0730     1.0020 h1         1 SS1       0.074700
     12 H3           0.2570    -2.1470     0.5270 ha         1 SS1       0.127500
     13 H4           2.6930    -1.8920     0.2850 ha         1 SS1       0.130000
     14 H5           3.6660     0.3340    -0.2060 ha         1 SS1       0.130000
     15 H6           2.1730     2.2940    -0.4460 ha         1 SS1       0.130000
     16 H7          -0.2510     2.0450    -0.2000 ha         1 SS1       0.127500
     17 H81         -2.0870     0.0390    -1.8330 hc         1 SS1       0.044367
     18 H82         -1.7420    -1.6360    -1.4150 hc         1 SS1       0.044367
     19 H83         -3.3080    -0.9350    -0.9960 hc         1 SS1       0.044367
@<TRIPOS>BOND
     1     1     2 1   
     2     1    10 1   
     3     2     3 1   
     4     2     9 1   
     5     2    11 1   
     6     3     4 ar  
     7     3     8 ar  
     8     4     5 ar  
     9     4    12 1   
    10     5     6 ar  
    11     5    13 1   
    12     6     7 ar  
    13     6    14 1   
    14     7     8 ar  
    15     7    15 1   
    16     8    16 1   
    17     9    17 1   
    18     9    18 1   
    19     9    19 1   
@<TRIPOS>SUBSTRUCTURE
     1 SS1         1 TEMP              0 ****  ****    0 ROOT
