@<TRIPOS>MOLECULE
SS1
   19    19     1     0     0
SMALL
No Charge or Current Charge


@<TRIPOS>ATOM
      1 O1          -2.2800     0.3490     1.1120 oh         1 SS1      -0.651000
      2 C1          -1.6730    -0.5290     0.1620 c3         1 SS1       0.215600
      3 C2          -0.1740    -0.2330     0.0760 ca         1 SS1      -0.109300
      4 C3           0.7510    -1.1490     0.6200 ca         1 SS1      -0.101000
      5 C4           2.1320    -0.8940     0.5540 ca         1 SS1      -0.109500
      6 C5           2.6030     0.2800    -0.0550 ca         1 SS1      -0.110000
      7 C6           1.6910     1.2010    -0.5950 ca         1 SS1      -0.109500
      8 C7           0.3100     0.9490    -0.5300 ca         1 SS1      -0.101000
      9 C8          -2.4030    -0.3890    -1.1890 c3         1 SS1      -0.127100
     10 HO1         -1.9200     1.2430     0.9290 ho         1 SS1       0.439000
     11 H1          -1.8000    -1.5700     0.4920 h1         1 SS1       0.074700
     12 H3           0.4000    -2.0620     1.0970 ha         1 SS1       0.109500
     13 H4           2.8360    -1.6080     0.9750 ha         1 SS1       0.112000
     14 H5           3.6720     0.4770    -0.1060 ha         1 SS1       0.112000
     15 H6           2.0550     2.1130    -1.0650 ha         1 SS1       0.112000
     16 H7          -0.3800     1.6770    -0.9510 ha         1 SS1       0.109500
     17 H81         -2.3880     0.6450    -1.5520 hc         1 SS1       0.044367
     18 H82         -1.9290    -1.0270    -1.9440 hc         1 SS1       0.044367
     19 H83         -3.4490    -0.7000    -1.0910 hc         1 SS1       0.044367
@<TRIPOS>BOND
     1     1     2 1   
     2     1    10 1   
     3     2     3 1   
     4     2     9 1   
     5     2    11 1   
     6     3     4 ar  
     7     3     8 ar  
     8     4     5 ar  
     9     4    12 1   
    10     5     6 ar  
    11     5    13 1   
    12     6     7 ar  
    13     6    14 1   
    14     7     8 ar  
    15     7    15 1   
    16     8    16 1   
    17     9    17 1   
    18     9    18 1   
    19     9    19 1   
@<TRIPOS>SUBSTRUCTURE
     1 SS1         1 TEMP              0 ****  ****    0 ROOT
