@<TRIPOS>MOLECULE
SS2
   19    19     1     0     0
SMALL
abcg2


@<TRIPOS>ATOM
      1 O1           2.2640    -0.7380    -0.8830 oh         1 SS2      -0.656000
      2 C1           1.6920     0.3780    -0.2330 c3         1 SS2       0.219600
      3 C2           0.2020     0.1610    -0.1440 ca         1 SS2      -0.081300
      4 C3          -0.3290    -1.0930     0.1500 ca         1 SS2      -0.093000
      5 C4          -1.7000    -1.2650     0.2780 ca         1 SS2      -0.114500
      6 C5          -2.5620    -0.1870     0.1160 ca         1 SS2      -0.107000
      7 C6          -2.0400     1.0660    -0.1780 ca         1 SS2      -0.114500
      8 C7          -0.6680     1.2340    -0.3100 ca         1 SS2      -0.093000
      9 C8           2.2880     0.5890     1.1540 c3         1 SS2      -0.129100
     10 HO1          3.2210    -0.6570    -0.8280 ho         1 SS2       0.442000
     11 H1           1.8680     1.2910    -0.8180 h1         1 SS2       0.033700
     12 H3           0.3280    -1.9430     0.2810 ha         1 SS2       0.115500
     13 H4          -2.0990    -2.2460     0.5060 ha         1 SS2       0.111000
     14 H5          -3.6310    -0.3240     0.2140 ha         1 SS2       0.111000
     15 H6          -2.7020     1.9120    -0.3130 ha         1 SS2       0.111000
     16 H7          -0.2710     2.2140    -0.5520 ha         1 SS2       0.115500
     17 H81          1.8330     1.4500     1.6440 hc         1 SS2       0.043033
     18 H82          2.1300    -0.2850     1.7870 hc         1 SS2       0.043033
     19 H83          3.3630     0.7790     1.0920 hc         1 SS2       0.043033
@<TRIPOS>BOND
     1     1     2 1   
     2     1    10 1   
     3     2     3 1   
     4     2     9 1   
     5     2    11 1   
     6     3     4 ar  
     7     3     8 ar  
     8     4     5 ar  
     9     4    12 1   
    10     5     6 ar  
    11     5    13 1   
    12     6     7 ar  
    13     6    14 1   
    14     7     8 ar  
    15     7    15 1   
    16     8    16 1   
    17     9    17 1   
    18     9    18 1   
    19     9    19 1   
@<TRIPOS>SUBSTRUCTURE
     1 SS2         1 TEMP              0 ****  ****    0 ROOT
