@<TRIPOS>MOLECULE
SS2
   19    19     1     0     0
SMALL
No Charge or Current Charge


@<TRIPOS>ATOM
      1 O1           2.2860    -0.4930    -1.0610 oh         1 SS2      -0.656000
      2 C1           1.6890     0.4560    -0.1730 c3         1 SS2       0.219600
      3 C2           0.1790     0.2210    -0.0890 ca         1 SS2      -0.081300
      4 C3          -0.3390    -1.0100     0.3660 ca         1 SS2      -0.093000
      5 C4          -1.7280    -1.2130     0.4450 ca         1 SS2      -0.114500
      6 C5          -2.6120    -0.1880     0.0690 ca         1 SS2      -0.107000
      7 C6          -2.1050     1.0400    -0.3880 ca         1 SS2      -0.114500
      8 C7          -0.7160     1.2440    -0.4670 ca         1 SS2      -0.093000
      9 C8           2.3770     0.3560     1.2020 c3         1 SS2      -0.129100
     10 HO1          3.2410    -0.2700    -1.1100 ho         1 SS2       0.442000
     11 H1           1.8610     1.4710    -0.5570 h1         1 SS2       0.033700
     12 H3           0.3360    -1.8130     0.6550 ha         1 SS2       0.115500
     13 H4          -2.1190    -2.1650     0.7970 ha         1 SS2       0.111000
     14 H5          -3.6870    -0.3450     0.1300 ha         1 SS2       0.111000
     15 H6          -2.7880     1.8350    -0.6800 ha         1 SS2       0.111000
     16 H7          -0.3360     2.2000    -0.8210 ha         1 SS2       0.115500
     17 H81          1.9240     1.0660     1.9040 hc         1 SS2       0.043033
     18 H82          2.2810    -0.6510     1.6230 hc         1 SS2       0.043033
     19 H83          3.4440     0.5960     1.1200 hc         1 SS2       0.043033
@<TRIPOS>BOND
     1     1     2 1   
     2     1    10 1   
     3     2     3 1   
     4     2     9 1   
     5     2    11 1   
     6     3     4 ar  
     7     3     8 ar  
     8     4     5 ar  
     9     4    12 1   
    10     5     6 ar  
    11     5    13 1   
    12     6     7 ar  
    13     6    14 1   
    14     7     8 ar  
    15     7    15 1   
    16     8    16 1   
    17     9    17 1   
    18     9    18 1   
    19     9    19 1   
@<TRIPOS>SUBSTRUCTURE
     1 SS2         1 TEMP              0 ****  ****    0 ROOT
