@<TRIPOS>MOLECULE
SS3
   49    52     1     0     0
SMALL
No Charge or Current Charge


@<TRIPOS>ATOM
      1 N1          -7.8810     1.1180    -0.5600 nc         1 SS3      -0.516100
      2 N3          -1.1270    -3.0000     0.7510 nb         1 SS3      -0.637000
      3 C4          -5.7730     1.5610     0.2150 ca         1 SS3      -0.027200
      4 C5          -4.6280     2.1550     0.7560 ca         1 SS3      -0.134000
      5 C6          -3.4540     1.3730     0.8290 ca         1 SS3      -0.058000
      6 C8          -7.1060     0.0320    -0.7070 cd         1 SS3       0.364900
      7 C13          7.4160     0.2960     0.7960 ca         1 SS3      -0.097000
      8 C15          8.6950     1.5110    -0.8840 ca         1 SS3      -0.109000
      9 C9          -7.6410    -1.2390    -1.3040 c3         1 SS3      -0.103400
     10 C17          6.4710    -0.0790    -0.1810 ca         1 SS3      -0.067300
     11 C20         -2.1780    -0.8020     0.4530 cp         1 SS3      -0.036000
     12 C21         -0.8940    -0.2130     0.3230 ca         1 SS3      -0.113000
     13 C22          0.2530    -1.0190     0.4080 ca         1 SS3       0.095100
     14 C24          2.7160    -1.1760     0.3410 c3         1 SS3       0.117600
     15 C1          -3.4290     0.0190     0.3680 cp         1 SS3      -0.083000
     16 C2          -4.6280    -0.5310    -0.1710 ca         1 SS3      -0.014000
     17 C3          -5.7690     0.2800    -0.2250 ca         1 SS3      -0.235900
     18 N5          -7.0370     2.0840     0.0230 na         1 SS3      -0.062400
     19 C14          8.5230     1.0880     0.4460 ca         1 SS3      -0.110000
     20 C16          6.6520     0.3450    -1.5130 ca         1 SS3      -0.097000
     21 C18          0.0860    -2.4110     0.6240 ca         1 SS3       0.250900
     22 C19         -2.2230    -2.2080     0.6650 ca         1 SS3       0.304900
     23 C26          7.7590     1.1380    -1.8630 ca         1 SS3      -0.110000
     24 O1           1.4910    -0.4170     0.2740 os         1 SS3      -0.349100
     25 C23          3.9140    -0.2040     0.1440 c3         1 SS3       0.167500
     26 C25          5.2730    -0.9510     0.1910 c3         1 SS3      -0.025100
     27 N4           3.8730     0.9100     1.1290 n8         1 SS3      -0.989200
     28 H2          -4.6620    -1.5510    -0.5470 ha         1 SS3       0.123000
     29 H5          -4.6390     3.1830     1.1110 ha         1 SS3       0.123000
     30 HA          -7.3540     3.0250     0.2550 hn         1 SS3       0.378000
     31 H9C1        -7.0900    -1.4990    -2.2150 hc         1 SS3       0.051367
     32 H9C2        -7.5390    -2.0710    -0.5990 hc         1 SS3       0.051367
     33 H9C3        -8.7010    -1.1470    -1.5660 hc         1 SS3       0.051367
     34 H6          -2.5600     1.8170     1.2610 ha         1 SS3       0.116000
     35 H21         -0.7840     0.8520     0.1440 ha         1 SS3       0.133000
     36 H19         -3.1790    -2.7170     0.7840 h4         1 SS3       0.024100
     37 H18          0.9410    -3.0820     0.6970 h4         1 SS3       0.022100
     38 H241         2.8060    -1.6780     1.3140 h1         1 SS3       0.040700
     39 H242         2.7380    -1.9410    -0.4470 h1         1 SS3       0.040700
     40 H23          3.8050     0.2340    -0.8600 h1         1 SS3       0.078700
     41 H251         5.2280    -1.8010    -0.5010 hc         1 SS3       0.046200
     42 H252         5.4100    -1.3870     1.1880 hc         1 SS3       0.046200
     43 H4N1         2.9040     1.2470     1.1730 hn         1 SS3       0.401000
     44 H4N2         4.0300     0.5290     2.0680 hn         1 SS3       0.401000
     45 H16          5.9340     0.0590    -2.2790 ha         1 SS3       0.108000
     46 H14          9.2480     1.3750     1.2050 ha         1 SS3       0.110500
     47 H26          7.8910     1.4620    -2.8930 ha         1 SS3       0.110500
     48 H15          9.5520     2.1240    -1.1540 ha         1 SS3       0.111000
     49 H13          7.2930    -0.0260     1.8270 ha         1 SS3       0.108000
@<TRIPOS>BOND
     1     1     6 2   
     2     1    18 1   
     3     2    21 ar  
     4     2    22 ar  
     5     3     4 ar  
     6     3    17 ar  
     7     3    18 1   
     8     4     5 ar  
     9     4    29 1   
    10     5    15 ar  
    11     5    34 1   
    12     6     9 1   
    13     6    17 1   
    14     7    10 ar  
    15     7    19 ar  
    16     7    49 1   
    17     8    19 ar  
    18     8    23 ar  
    19     8    48 1   
    20     9    31 1   
    21     9    32 1   
    22     9    33 1   
    23    10    20 ar  
    24    10    26 1   
    25    11    12 ar  
    26    11    15 1   
    27    11    22 ar  
    28    12    13 ar  
    29    12    35 1   
    30    13    21 ar  
    31    13    24 1   
    32    14    24 1   
    33    14    25 1   
    34    14    38 1   
    35    14    39 1   
    36    15    16 ar  
    37    16    17 ar  
    38    16    28 1   
    39    18    30 1   
    40    19    46 1   
    41    20    23 ar  
    42    20    45 1   
    43    21    37 1   
    44    22    36 1   
    45    23    47 1   
    46    25    26 1   
    47    25    27 1   
    48    25    40 1   
    49    26    41 1   
    50    26    42 1   
    51    27    43 1   
    52    27    44 1   
@<TRIPOS>SUBSTRUCTURE
     1 SS3         1 TEMP              0 ****  ****    0 ROOT
