@<TRIPOS>MOLECULE
SS3
   49    52     1     0     0
SMALL
bcc


@<TRIPOS>ATOM
      1 N1          -7.6950     1.1250    -0.4750 nc         1 SS3      -0.516100
      2 N3          -1.0500    -2.9290     0.7650 nb         1 SS3      -0.637000
      3 C4          -5.6540     1.5290     0.3350 ca         1 SS3      -0.027200
      4 C5          -4.5090     2.0800     0.9190 ca         1 SS3      -0.152000
      5 C6          -3.3820     1.2940     0.9420 ca         1 SS3      -0.076000
      6 C8          -6.9830     0.0480    -0.6970 cd         1 SS3       0.364900
      7 C13          7.0960     0.4850     0.8220 ca         1 SS3      -0.115000
      8 C15          8.5620     1.4660    -0.8180 ca         1 SS3      -0.127000
      9 C9          -7.5430    -1.1560    -1.3660 c3         1 SS3      -0.103400
     10 C17          6.3370    -0.1140    -0.1800 ca         1 SS3      -0.067300
     11 C20         -2.1100    -0.8050     0.4590 cp         1 SS3      -0.101300
     12 C21         -0.8680    -0.2210     0.2600 ca         1 SS3      -0.131000
     13 C22          0.2820    -1.0050     0.3170 ca         1 SS3       0.029800
     14 C24          2.6580    -1.1240     0.2220 c3         1 SS3       0.094400
     15 C1          -3.3540    -0.0170     0.4060 cp         1 SS3      -0.083000
     16 C2          -4.4980    -0.5470    -0.1660 ca         1 SS3      -0.032000
     17 C3          -5.6570     0.2310    -0.2020 ca         1 SS3      -0.235900
     18 N5          -6.9010     2.0100     0.1420 na         1 SS3      -0.012100
     19 C14          8.2010     1.2670     0.5090 ca         1 SS3      -0.128000
     20 C16          6.7100     0.0910    -1.5060 ca         1 SS3      -0.115000
     21 C18          0.1390    -2.3680     0.5690 ca         1 SS3       0.316200
     22 C19         -2.1360    -2.1800     0.7170 ca         1 SS3       0.370200
     23 C26          7.8110     0.8750    -1.8260 ca         1 SS3      -0.128000
     24 O1           1.4520    -0.3830     0.1100 os         1 SS3      -0.325900
     25 C23          3.8250    -0.1520     0.0780 c3         1 SS3       0.167500
     26 C25          5.1320    -0.9480     0.1460 c3         1 SS3      -0.025100
     27 N4           3.8400     0.9160     1.0580 n8         1 SS3      -0.878800
     28 H2          -4.4920    -1.5390    -0.6010 ha         1 SS3       0.141000
     29 H5          -4.5060     3.0750     1.3440 ha         1 SS3       0.141000
     30 HA          -7.2640     2.9130     0.3990 hn         1 SS3       0.327700
     31 H9C1        -6.9510    -1.4320    -2.2400 hc         1 SS3       0.051367
     32 H9C2        -7.5430    -2.0160    -0.6940 hc         1 SS3       0.051367
     33 H9C3        -8.5660    -0.9810    -1.6920 hc         1 SS3       0.051367
     34 H6          -2.4870     1.6890     1.4060 ha         1 SS3       0.134000
     35 H21         -0.7760     0.8370     0.0440 ha         1 SS3       0.151000
     36 H19         -3.0790    -2.6810     0.9090 h4         1 SS3       0.024100
     37 H18          0.9930    -3.0320     0.6180 h4         1 SS3       0.022100
     38 H241         2.7090    -1.6240     1.1980 h1         1 SS3       0.040700
     39 H242         2.7030    -1.8940    -0.5560 h1         1 SS3       0.040700
     40 H23          3.7590     0.3070    -0.9150 h1         1 SS3       0.078700
     41 H251         5.0730    -1.7880    -0.5500 hc         1 SS3       0.046200
     42 H252         5.2340    -1.3800     1.1470 hc         1 SS3       0.046200
     43 H4N1         2.9820     1.4500     1.0070 hn         1 SS3       0.345800
     44 H4N2         3.8750     0.5260     1.9930 hn         1 SS3       0.345800
     45 H16          6.1350    -0.3720    -2.3000 ha         1 SS3       0.126000
     46 H14          8.7820     1.7200     1.3020 ha         1 SS3       0.128500
     47 H26          8.0880     1.0180    -2.8630 ha         1 SS3       0.128500
     48 H15          9.4250     2.0710    -1.0630 ha         1 SS3       0.129000
     49 H13          6.8230     0.3340     1.8600 ha         1 SS3       0.126000
@<TRIPOS>BOND
     1     1     6 2   
     2     1    18 1   
     3     2    21 ar  
     4     2    22 ar  
     5     3     4 ar  
     6     3    17 ar  
     7     3    18 1   
     8     4     5 ar  
     9     4    29 1   
    10     5    15 ar  
    11     5    34 1   
    12     6     9 1   
    13     6    17 1   
    14     7    10 ar  
    15     7    19 ar  
    16     7    49 1   
    17     8    19 ar  
    18     8    23 ar  
    19     8    48 1   
    20     9    31 1   
    21     9    32 1   
    22     9    33 1   
    23    10    20 ar  
    24    10    26 1   
    25    11    12 ar  
    26    11    15 1   
    27    11    22 ar  
    28    12    13 ar  
    29    12    35 1   
    30    13    21 ar  
    31    13    24 1   
    32    14    24 1   
    33    14    25 1   
    34    14    38 1   
    35    14    39 1   
    36    15    16 ar  
    37    16    17 ar  
    38    16    28 1   
    39    18    30 1   
    40    19    46 1   
    41    20    23 ar  
    42    20    45 1   
    43    21    37 1   
    44    22    36 1   
    45    23    47 1   
    46    25    26 1   
    47    25    27 1   
    48    25    40 1   
    49    26    41 1   
    50    26    42 1   
    51    27    43 1   
    52    27    44 1   
@<TRIPOS>SUBSTRUCTURE
     1 SS3         1 TEMP              0 ****  ****    0 ROOT
