@<TRIPOS>MOLECULE
SS4
   49    52     1     0     0
SMALL
No Charge or Current Charge


@<TRIPOS>ATOM
      1 N1          -9.6270     1.6670     0.3130 nc         1 SS4      -0.518100
      2 N3          -3.2870    -3.1350    -0.7020 nb         1 SS4      -0.638000
      3 C4          -7.4490     1.8870    -0.3600 ca         1 SS4      -0.028200
      4 C5          -6.2250     2.3580    -0.8440 ca         1 SS4      -0.135000
      5 C6          -5.1370     1.4580    -0.8660 ca         1 SS4      -0.057000
      6 C8          -8.9770     0.5050     0.4900 cd         1 SS4       0.364900
      7 C13          5.4100    -1.1860     1.2170 ca         1 SS4      -0.110000
      8 C15          6.9610     0.5100     0.4170 ca         1 SS4      -0.017900
      9 C9          -9.6690    -0.7030     1.0560 c3         1 SS4      -0.103400
     10 C17          4.5710    -0.9510     0.1090 ca         1 SS4      -0.075300
     11 C20         -4.1140    -0.8390    -0.4420 cp         1 SS4      -0.038000
     12 C21         -2.7830    -0.3880    -0.2500 ca         1 SS4      -0.111000
     13 C22         -1.7240    -1.3100    -0.2860 ca         1 SS4       0.099100
     14 C24          0.7030    -1.7230    -0.1160 c3         1 SS4       0.170600
     15 C1          -5.2750     0.1080    -0.4120 cp         1 SS4      -0.080000
     16 C2          -6.5490    -0.3130     0.0680 ca         1 SS4      -0.015000
     17 C3          -7.6000     0.6130     0.0730 ca         1 SS4      -0.235900
     18 N5          -8.6600     2.5400    -0.2250 na         1 SS4      -0.062400
     19 C14          6.6020    -0.4560     1.3710 ca         1 SS4      -0.080000
     20 C16          4.9400     0.0170    -0.8450 ca         1 SS4      -0.110000
     21 C18         -2.0260    -2.6760    -0.5160 ca         1 SS4       0.244900
     22 C19         -4.2970    -2.2330    -0.6630 ca         1 SS4       0.301900
     23 C26          6.1320     0.7470    -0.6920 ca         1 SS4      -0.080000
     24 O1          -0.4380    -0.8410    -0.0920 os         1 SS4      -0.319100
     25 C10          1.9970    -0.8880     0.1290 c3         1 SS4       0.166500
     26 C25          3.2760    -1.7430    -0.0620 c3         1 SS4      -0.076100
     27 N4           2.0240    -0.2350     1.4650 n8         1 SS4      -0.986200
     28 H5          -8.8650     3.5080    -0.4670 hn         1 SS4       0.377000
     29 H18         -1.2440    -3.4330    -0.5530 h4         1 SS4       0.019100
     30 H19         -5.2940    -2.6380    -0.8290 h4         1 SS4       0.022100
     31 HA          -6.1120     3.3820    -1.1940 ha         1 SS4       0.122000
     32 H6          -4.1830     1.8060    -1.2530 ha         1 SS4       0.117000
     33 H9C1        -9.6200    -1.5410     0.3520 hc         1 SS4       0.051033
     34 H9C2        -9.1930    -1.0180     1.9910 hc         1 SS4       0.051033
     35 H9C3       -10.7260    -0.5010     1.2670 hc         1 SS4       0.051033
     36 H13          5.1410    -1.9330     1.9610 ha         1 SS4       0.116500
     37 H14          7.2460    -0.6410     2.2290 ha         1 SS4       0.132000
     38 H26          6.4120     1.4940    -1.4320 ha         1 SS4       0.132000
     39 H16          4.3050     0.2050    -1.7080 ha         1 SS4       0.116500
     40 H251         3.2560    -2.1830    -1.0670 hc         1 SS4       0.056200
     41 H252         3.2490    -2.5910     0.6330 hc         1 SS4       0.056200
     42 H21         -2.5710     0.6600    -0.0600 ha         1 SS4       0.136000
     43 H241         0.6130    -2.4970     0.6580 h1         1 SS4       0.035200
     44 H242         0.7760    -2.2200    -1.0920 h1         1 SS4       0.035200
     45 H10          2.0190    -0.0930    -0.6310 h1         1 SS4       0.075700
     46 H2          -6.7070    -1.3240     0.4370 ha         1 SS4       0.122000
     47 H4N1         1.9700    -0.9570     2.1910 hn         1 SS4       0.400000
     48 H4N2         2.9580     0.1680     1.6020 hn         1 SS4       0.400000
     49 Br1          8.5830     1.5020     0.6260 br         1 SS4      -0.094100
@<TRIPOS>BOND
     1     1     6 2   
     2     1    18 1   
     3     2    21 ar  
     4     2    22 ar  
     5     3     4 ar  
     6     3    17 ar  
     7     3    18 1   
     8     4     5 ar  
     9     4    31 1   
    10     5    15 ar  
    11     5    32 1   
    12     6     9 1   
    13     6    17 1   
    14     7    10 ar  
    15     7    19 ar  
    16     7    36 1   
    17     8    19 ar  
    18     8    23 ar  
    19     8    49 1   
    20     9    33 1   
    21     9    34 1   
    22     9    35 1   
    23    10    20 ar  
    24    10    26 1   
    25    11    12 ar  
    26    11    15 1   
    27    11    22 ar  
    28    12    13 ar  
    29    12    42 1   
    30    13    21 ar  
    31    13    24 1   
    32    14    24 1   
    33    14    25 1   
    34    14    43 1   
    35    14    44 1   
    36    15    16 ar  
    37    16    17 ar  
    38    16    46 1   
    39    18    28 1   
    40    19    37 1   
    41    20    23 ar  
    42    20    39 1   
    43    21    29 1   
    44    22    30 1   
    45    23    38 1   
    46    25    26 1   
    47    25    27 1   
    48    25    45 1   
    49    26    40 1   
    50    26    41 1   
    51    27    47 1   
    52    27    48 1   
@<TRIPOS>SUBSTRUCTURE
     1 SS4         1 TEMP              0 ****  ****    0 ROOT
