@<TRIPOS>MOLECULE
SS4
   49    52     1     0     0
SMALL
abcg2


@<TRIPOS>ATOM
      1 N1          -9.3970     1.6180     0.4670 nc         1 SS4      -0.518100
      2 N3          -3.1840    -3.0360    -0.8890 nb         1 SS4      -0.638000
      3 C4          -7.3310     1.8410    -0.3480 ca         1 SS4      -0.028200
      4 C5          -6.1400     2.2910    -0.9280 ca         1 SS4      -0.135000
      5 C6          -5.0950     1.4000    -0.9760 ca         1 SS4      -0.057000
      6 C8          -8.7920     0.4730     0.6610 cd         1 SS4       0.364900
      7 C13          5.0810    -1.0690     1.3330 ca         1 SS4      -0.110000
      8 C15          6.7640     0.4510     0.5770 ca         1 SS4      -0.017900
      9 C9          -9.4590    -0.6840     1.3150 c3         1 SS4      -0.103400
     10 C17          4.4330    -1.0010     0.1020 ca         1 SS4      -0.075300
     11 C20         -4.0310    -0.8250    -0.5460 cp         1 SS4      -0.038000
     12 C21         -2.7380    -0.3670    -0.3430 ca         1 SS4      -0.111000
     13 C22         -1.6690    -1.2570    -0.4150 ca         1 SS4       0.099100
     14 C24          0.6670    -1.6310    -0.2230 c3         1 SS4       0.170600
     15 C1          -5.1930     0.0800    -0.4700 cp         1 SS4      -0.080000
     16 C2          -6.3800    -0.3480     0.0970 ca         1 SS4      -0.015000
     17 C3          -7.4580     0.5380     0.1590 ca         1 SS4      -0.235900
     18 N5          -8.5250     2.4360    -0.1360 na         1 SS4      -0.062400
     19 C14          6.2440    -0.3520     1.5800 ca         1 SS4      -0.080000
     20 C16          4.9820    -0.1860    -0.8850 ca         1 SS4      -0.110000
     21 C18         -1.9460    -2.5960    -0.6880 ca         1 SS4       0.244900
     22 C19         -4.1920    -2.1860    -0.8250 ca         1 SS4       0.301900
     23 C26          6.1420     0.5410    -0.6600 ca         1 SS4      -0.080000
     24 O1          -0.4450    -0.7540    -0.2030 os         1 SS4      -0.319100
     25 C10          1.9220    -0.8280     0.0730 c3         1 SS4       0.166500
     26 C25          3.1490    -1.7370    -0.1380 c3         1 SS4      -0.076100
     27 N4           1.8280    -0.2320     1.3900 n8         1 SS4      -0.986200
     28 H5          -8.7990     3.3750    -0.3690 hn         1 SS4       0.377000
     29 H18         -1.1600    -3.3390    -0.7510 h4         1 SS4       0.019100
     30 H19         -5.1800    -2.5900    -1.0210 h4         1 SS4       0.022100
     31 HA          -6.0420     3.2920    -1.3280 ha         1 SS4       0.122000
     32 H6          -4.1670     1.7180    -1.4350 ha         1 SS4       0.117000
     33 H9C1        -9.5070    -1.5430     0.6440 hc         1 SS4       0.051033
     34 H9C2        -8.9110    -1.0000     2.2040 hc         1 SS4       0.051033
     35 H9C3       -10.4740    -0.4300     1.6150 hc         1 SS4       0.051033
     36 H13          4.6770    -1.7000     2.1160 ha         1 SS4       0.116500
     37 H14          6.7260    -0.4250     2.5460 ha         1 SS4       0.132000
     38 H26          6.5480     1.1650    -1.4460 ha         1 SS4       0.132000
     39 H16          4.5010    -0.1150    -1.8530 ha         1 SS4       0.116500
     40 H251         3.1350    -2.1390    -1.1540 hc         1 SS4       0.056200
     41 H252         3.0820    -2.5900     0.5450 hc         1 SS4       0.056200
     42 H21         -2.5450     0.6740    -0.1080 ha         1 SS4       0.136000
     43 H241         0.5460    -2.4240     0.5270 h1         1 SS4       0.035200
     44 H242         0.7550    -2.1130    -1.2030 h1         1 SS4       0.035200
     45 H10          1.9790    -0.0120    -0.6560 h1         1 SS4       0.075700
     46 H2          -6.4670    -1.3470     0.5090 ha         1 SS4       0.122000
     47 H4N1         1.9250    -0.9460     2.1040 hn         1 SS4       0.400000
     48 H4N2         2.5880     0.4200     1.5360 hn         1 SS4       0.400000
     49 BR1          8.3470     1.4330     0.8960 br         1 SS4      -0.094100
@<TRIPOS>BOND
     1     1     6 2   
     2     1    18 1   
     3     2    21 ar  
     4     2    22 ar  
     5     3     4 ar  
     6     3    17 ar  
     7     3    18 1   
     8     4     5 ar  
     9     4    31 1   
    10     5    15 ar  
    11     5    32 1   
    12     6     9 1   
    13     6    17 1   
    14     7    10 ar  
    15     7    19 ar  
    16     7    36 1   
    17     8    19 ar  
    18     8    23 ar  
    19     8    49 1   
    20     9    33 1   
    21     9    34 1   
    22     9    35 1   
    23    10    20 ar  
    24    10    26 1   
    25    11    12 ar  
    26    11    15 1   
    27    11    22 ar  
    28    12    13 ar  
    29    12    42 1   
    30    13    21 ar  
    31    13    24 1   
    32    14    24 1   
    33    14    25 1   
    34    14    43 1   
    35    14    44 1   
    36    15    16 ar  
    37    16    17 ar  
    38    16    46 1   
    39    18    28 1   
    40    19    37 1   
    41    20    23 ar  
    42    20    39 1   
    43    21    29 1   
    44    22    30 1   
    45    23    38 1   
    46    25    26 1   
    47    25    27 1   
    48    25    45 1   
    49    26    40 1   
    50    26    41 1   
    51    27    47 1   
    52    27    48 1   
@<TRIPOS>SUBSTRUCTURE
     1 SS4         1 TEMP              0 ****  ****    0 ROOT
