@<TRIPOS>MOLECULE
SS5
   69    73     1     0     0
SMALL
No Charge or Current Charge


@<TRIPOS>ATOM
      1 C1           3.5960    -2.6910     0.2310 ca         1 SS5      -0.028300
      2 C2           4.1350    -3.6440     1.1170 ca         1 SS5      -0.130000
      3 C3           5.3690    -3.4110     1.7460 ca         1 SS5      -0.072000
      4 C4           6.0780    -2.2240     1.4910 ca         1 SS5      -0.199000
      5 C5           5.5480    -1.2650     0.6010 ca         1 SS5       0.149100
      6 C6           4.3130    -1.5060    -0.0240 ca         1 SS5      -0.147000
      7 C7           2.2600    -2.9450    -0.4660 c3         1 SS5      -0.026100
      8 O8           6.1980    -0.0850     0.3080 os         1 SS5      -0.353100
      9 C9           1.1110    -2.0280     0.0300 c3         1 SS5       0.167500
     10 C10         -0.1680    -2.1870    -0.8400 c3         1 SS5       0.118600
     11 O11         -1.1850    -1.2990    -0.3300 os         1 SS5      -0.350100
     12 N12          0.8180    -2.2570     1.4700 n8         1 SS5      -0.988200
     13 C13         -2.4370    -1.2170    -0.9110 ca         1 SS5       0.097100
     14 C14         -2.8240    -1.9910    -2.0340 ca         1 SS5       0.250900
     15 N15         -4.0530    -1.9120    -2.6000 nb         1 SS5      -0.638000
     16 C16         -4.9430    -1.0480    -2.0530 ca         1 SS5       0.304900
     17 C17         -4.6650    -0.2220    -0.9290 cp         1 SS5      -0.035000
     18 C18         -3.3710    -0.3260    -0.3580 ca         1 SS5      -0.114000
     19 C19         -5.3130     1.9580     0.2240 ca         1 SS5      -0.058000
     20 C20         -6.2740     2.8490     0.7500 ca         1 SS5      -0.134000
     21 C21         -7.6200     2.4780     0.6680 ca         1 SS5      -0.027200
     22 C22         -8.0010     1.3060     0.1050 ca         1 SS5      -0.236900
     23 C23         -7.0810     0.3940    -0.4290 ca         1 SS5      -0.014000
     24 C24         -5.6940     0.7160    -0.3730 cp         1 SS5      -0.082000
     25 N25         -8.7520     3.1440     1.0960 na         1 SS5      -0.062400
     26 N26         -9.9030     2.3860     0.8060 nc         1 SS5      -0.517100
     27 C27         -9.4390     1.2770     0.2070 cd         1 SS5       0.364900
     28 C28        -10.3670     0.1930    -0.2660 c3         1 SS5      -0.103400
     29 C29          7.4700     0.2540     0.8880 c3         1 SS5       0.169600
     30 C30          7.9310     1.6380     0.3490 c6         1 SS5      -0.065700
     31 C31          9.2240     2.1140     1.0680 c6         1 SS5      -0.069900
     32 C32          9.6900     3.4970     0.5480 c6         1 SS5      -0.073900
     33 C33          9.8950     3.4780    -0.9860 c6         1 SS5      -0.075400
     34 C34          8.6110     3.0100    -1.7130 c6         1 SS5      -0.073900
     35 C35          8.1430     1.6270    -1.1940 c6         1 SS5      -0.069900
     36 H2           3.5960    -4.5660     1.3220 ha         1 SS5       0.111000
     37 H6           3.9140    -0.7660    -0.7110 ha         1 SS5       0.121000
     38 H7C1         2.3910    -2.7910    -1.5440 hc         1 SS5       0.047200
     39 H7C2         1.9600    -3.9940    -0.3510 hc         1 SS5       0.047200
     40 H3           5.7770    -4.1510     2.4310 ha         1 SS5       0.109000
     41 H4           7.0300    -2.0680     1.9900 ha         1 SS5       0.115000
     42 H9           1.4430    -0.9850    -0.0820 h1         1 SS5       0.079700
     43 H291         7.3870     0.3090     1.9820 h1         1 SS5       0.033700
     44 H292         8.2270    -0.5000     0.6340 h1         1 SS5       0.033700
     45 H101         0.0700    -1.9390    -1.8820 h1         1 SS5       0.040700
     46 H102        -0.5110    -3.2300    -0.8010 h1         1 SS5       0.040700
     47 H121        -0.0490    -1.7520     1.6920 hn         1 SS5       0.401000
     48 H122         0.5560    -3.2400     1.6040 hn         1 SS5       0.401000
     49 H14         -2.1400    -2.6970    -2.5020 h4         1 SS5       0.021100
     50 H18         -3.0960     0.2640     0.5110 ha         1 SS5       0.133000
     51 H16         -5.9140    -1.0050    -2.5430 h4         1 SS5       0.023100
     52 H20         -5.9760     3.7930     1.2010 ha         1 SS5       0.123000
     53 H25         -8.7920     4.0520     1.5580 hn         1 SS5       0.378000
     54 H23         -7.4270    -0.5430    -0.8610 ha         1 SS5       0.122000
     55 H281       -10.1520    -0.7510     0.2470 hc         1 SS5       0.051367
     56 H282       -11.4160     0.4480    -0.0760 hc         1 SS5       0.051367
     57 H283       -10.2510     0.0270    -1.3420 hc         1 SS5       0.051367
     58 H30          7.1230     2.3450     0.5880 hc         1 SS5       0.061700
     59 H311         9.0520     2.1710     2.1520 hc         1 SS5       0.042450
     60 H312        10.0260     1.3770     0.9200 hc         1 SS5       0.042450
     61 H351         8.8860     0.8630    -1.4630 hc         1 SS5       0.042450
     62 H352         7.2120     1.3470    -1.7050 hc         1 SS5       0.042450
     63 H321         8.9470     4.2620     0.8130 hc         1 SS5       0.039700
     64 H322        10.6260     3.7860     1.0450 hc         1 SS5       0.039700
     65 H331        10.1780     4.4800    -1.3370 hc         1 SS5       0.038700
     66 H332        10.7290     2.8100    -1.2400 hc         1 SS5       0.038700
     67 H341         7.8120     3.7500    -1.5670 hc         1 SS5       0.039700
     68 H342         8.7940     2.9590    -2.7950 hc         1 SS5       0.039700
     69 H19         -4.2640     2.2410     0.2680 ha         1 SS5       0.117000
@<TRIPOS>BOND
     1     1     2 ar  
     2     1     6 ar  
     3     1     7 1   
     4     2     3 ar  
     5     2    36 1   
     6     3     4 ar  
     7     3    40 1   
     8     4     5 ar  
     9     4    41 1   
    10     5     6 ar  
    11     5     8 1   
    12     6    37 1   
    13     7     9 1   
    14     7    38 1   
    15     7    39 1   
    16     8    29 1   
    17     9    10 1   
    18     9    12 1   
    19     9    42 1   
    20    10    11 1   
    21    10    45 1   
    22    10    46 1   
    23    11    13 1   
    24    12    47 1   
    25    12    48 1   
    26    13    14 ar  
    27    13    18 ar  
    28    14    15 ar  
    29    14    49 1   
    30    15    16 ar  
    31    16    17 ar  
    32    16    51 1   
    33    17    18 ar  
    34    17    24 1   
    35    18    50 1   
    36    19    20 ar  
    37    19    24 ar  
    38    19    69 1   
    39    20    21 ar  
    40    20    52 1   
    41    21    22 ar  
    42    21    25 1   
    43    22    23 ar  
    44    22    27 1   
    45    23    24 ar  
    46    23    54 1   
    47    25    26 1   
    48    25    53 1   
    49    26    27 2   
    50    27    28 1   
    51    28    55 1   
    52    28    56 1   
    53    28    57 1   
    54    29    30 1   
    55    29    43 1   
    56    29    44 1   
    57    30    31 1   
    58    30    35 1   
    59    30    58 1   
    60    31    32 1   
    61    31    59 1   
    62    31    60 1   
    63    32    33 1   
    64    32    63 1   
    65    32    64 1   
    66    33    34 1   
    67    33    65 1   
    68    33    66 1   
    69    34    35 1   
    70    34    67 1   
    71    34    68 1   
    72    35    61 1   
    73    35    62 1   
@<TRIPOS>SUBSTRUCTURE
     1 SS5         1 TEMP              0 ****  ****    0 ROOT
