@<TRIPOS>MOLECULE
SS5
   69    73     1     0     0
SMALL
bcc


@<TRIPOS>ATOM
      1 C1           3.4960    -2.5210     0.1840 ca         1 SS5      -0.028300
      2 C2           3.9470    -3.4330     1.1380 ca         1 SS5      -0.148000
      3 C3           5.1410    -3.2040     1.8010 ca         1 SS5      -0.090000
      4 C4           5.9070    -2.0720     1.5410 ca         1 SS5      -0.217000
      5 C5           5.4590    -1.1570     0.5910 ca         1 SS5       0.149100
      6 C6           4.2580    -1.3930    -0.0810 ca         1 SS5      -0.165000
      7 C7           2.1970    -2.7300    -0.5410 c3         1 SS5      -0.026100
      8 O8           6.1100    -0.0280     0.2540 os         1 SS5      -0.329900
      9 C9           1.0630    -1.8710     0.0260 c3         1 SS5       0.167500
     10 C10         -0.1570    -2.0000    -0.8790 c3         1 SS5       0.095400
     11 O11         -1.1610    -1.1330    -0.3710 os         1 SS5      -0.326900
     12 N12          0.8220    -2.2160     1.4130 n8         1 SS5      -0.877800
     13 C13         -2.3600    -1.0940    -0.9700 ca         1 SS5       0.031800
     14 C14         -2.7090    -1.8280    -2.1020 ca         1 SS5       0.316200
     15 N15         -3.9140    -1.7420    -2.6540 nb         1 SS5      -0.638000
     16 C16         -4.8190    -0.9430    -2.1190 ca         1 SS5       0.370200
     17 C17         -4.5810    -0.1720    -0.9750 cp         1 SS5      -0.100300
     18 C18         -3.3210    -0.2620    -0.4030 ca         1 SS5      -0.132000
     19 C19         -5.2800     1.9430     0.1660 ca         1 SS5      -0.076000
     20 C20         -6.2080     2.7900     0.7210 ca         1 SS5      -0.152000
     21 C21         -7.5430     2.3690     0.7020 ca         1 SS5      -0.027200
     22 C22         -7.9190     1.1390     0.1390 ca         1 SS5      -0.236900
     23 C23         -6.9550     0.2960    -0.4180 ca         1 SS5      -0.032000
     24 C24         -5.6300     0.6940    -0.4060 cp         1 SS5      -0.082000
     25 N25         -8.6840     2.9330     1.1520 na         1 SS5      -0.012100
     26 N26         -9.7540     2.1600     0.9230 nc         1 SS5      -0.517100
     27 C27         -9.3330     1.0780     0.3180 cd         1 SS5       0.364900
     28 C28        -10.2520    -0.0150    -0.0990 c3         1 SS5      -0.103400
     29 C29          7.3350     0.2910     0.8930 c3         1 SS5       0.146400
     30 C30          7.8520     1.5940     0.3150 c6         1 SS5      -0.065700
     31 C31          9.0970     2.0470     1.0810 c6         1 SS5      -0.069900
     32 C32          9.6450     3.3600     0.5300 c6         1 SS5      -0.073900
     33 C33          9.9410     3.2550    -0.9630 c6         1 SS5      -0.075400
     34 C34          8.7070     2.7960    -1.7330 c6         1 SS5      -0.073900
     35 C35          8.1600     1.4840    -1.1790 c6         1 SS5      -0.069900
     36 H2           3.3650    -4.3190     1.3560 ha         1 SS5       0.129000
     37 H6           3.9230    -0.6730    -0.8200 ha         1 SS5       0.139000
     38 H7C1         2.3260    -2.4900    -1.6000 hc         1 SS5       0.047200
     39 H7C2         1.9100    -3.7850    -0.4940 hc         1 SS5       0.047200
     40 H3           5.4930    -3.9150     2.5380 ha         1 SS5       0.127000
     41 H4           6.8350    -1.9260     2.0750 ha         1 SS5       0.133000
     42 H9           1.3870    -0.8250    -0.0050 h1         1 SS5       0.079700
     43 H291         7.1820     0.3910     1.9750 h1         1 SS5       0.033700
     44 H292         8.0720    -0.5080     0.7360 h1         1 SS5       0.033700
     45 H101         0.0970    -1.7220    -1.9090 h1         1 SS5       0.040700
     46 H102        -0.5150    -3.0370    -0.8860 h1         1 SS5       0.040700
     47 H121         0.0590    -1.6630     1.7830 hn         1 SS5       0.345800
     48 H122         0.5310    -3.1840     1.4840 hn         1 SS5       0.345800
     49 H14         -2.0090    -2.4990    -2.5840 h4         1 SS5       0.021100
     50 H18         -3.0760     0.2940     0.4950 ha         1 SS5       0.151000
     51 H16         -5.7780    -0.8920    -2.6230 h4         1 SS5       0.023100
     52 H20         -5.9150     3.7410     1.1450 ha         1 SS5       0.141000
     53 H25         -8.7970     3.8170     1.6190 hn         1 SS5       0.327700
     54 H23         -7.2420    -0.6630    -0.8320 ha         1 SS5       0.140000
     55 H281        -9.9550    -0.9670     0.3420 hc         1 SS5       0.051367
     56 H282       -11.2750     0.1980     0.2050 hc         1 SS5       0.051367
     57 H283       -10.2400    -0.1460    -1.1830 hc         1 SS5       0.051367
     58 H30          7.0760     2.3590     0.4560 hc         1 SS5       0.061700
     59 H311         8.8650     2.1540     2.1440 hc         1 SS5       0.042450
     60 H312         9.8690     1.2730     1.0040 hc         1 SS5       0.042450
     61 H351         8.9000     0.6890    -1.3300 hc         1 SS5       0.042450
     62 H352         7.2660     1.1890    -1.7330 hc         1 SS5       0.042450
     63 H321         8.9100     4.1560     0.6980 hc         1 SS5       0.039700
     64 H322        10.5450     3.6480     1.0780 hc         1 SS5       0.039700
     65 H331        10.2940     4.2150    -1.3480 hc         1 SS5       0.038700
     66 H332        10.7540     2.5370    -1.1190 hc         1 SS5       0.038700
     67 H341         7.9320     3.5660    -1.6650 hc         1 SS5       0.039700
     68 H342         8.9410     2.6840    -2.7950 hc         1 SS5       0.039700
     69 H19         -4.2420     2.2520     0.1510 ha         1 SS5       0.135000
@<TRIPOS>BOND
     1     1     2 ar  
     2     1     6 ar  
     3     1     7 1   
     4     2     3 ar  
     5     2    36 1   
     6     3     4 ar  
     7     3    40 1   
     8     4     5 ar  
     9     4    41 1   
    10     5     6 ar  
    11     5     8 1   
    12     6    37 1   
    13     7     9 1   
    14     7    38 1   
    15     7    39 1   
    16     8    29 1   
    17     9    10 1   
    18     9    12 1   
    19     9    42 1   
    20    10    11 1   
    21    10    45 1   
    22    10    46 1   
    23    11    13 1   
    24    12    47 1   
    25    12    48 1   
    26    13    14 ar  
    27    13    18 ar  
    28    14    15 ar  
    29    14    49 1   
    30    15    16 ar  
    31    16    17 ar  
    32    16    51 1   
    33    17    18 ar  
    34    17    24 1   
    35    18    50 1   
    36    19    20 ar  
    37    19    24 ar  
    38    19    69 1   
    39    20    21 ar  
    40    20    52 1   
    41    21    22 ar  
    42    21    25 1   
    43    22    23 ar  
    44    22    27 1   
    45    23    24 ar  
    46    23    54 1   
    47    25    26 1   
    48    25    53 1   
    49    26    27 2   
    50    27    28 1   
    51    28    55 1   
    52    28    56 1   
    53    28    57 1   
    54    29    30 1   
    55    29    43 1   
    56    29    44 1   
    57    30    31 1   
    58    30    35 1   
    59    30    58 1   
    60    31    32 1   
    61    31    59 1   
    62    31    60 1   
    63    32    33 1   
    64    32    63 1   
    65    32    64 1   
    66    33    34 1   
    67    33    65 1   
    68    33    66 1   
    69    34    35 1   
    70    34    67 1   
    71    34    68 1   
    72    35    61 1   
    73    35    62 1   
@<TRIPOS>SUBSTRUCTURE
     1 SS5         1 TEMP              0 ****  ****    0 ROOT
