@<TRIPOS>MOLECULE
SS6
   68    72     1     0     0
SMALL
bcc


@<TRIPOS>ATOM
      1 C4          -6.4330    -2.2600    -0.2490 ca         1 SS6       0.399600
      2 C5          -6.2640    -0.8730    -0.0720 ca         1 SS6      -0.249600
      3 C6          -4.9050    -0.4060    -0.2000 ca         1 SS6       0.726200
      4 N1          -3.9250    -1.2400    -0.4570 nb         1 SS6      -0.801000
      5 N3          -5.3940    -3.0960    -0.5180 nb         1 SS6      -0.714000
      6 CBA          4.7900    -3.6930    -0.7720 ca         1 SS6      -0.063300
      7 CAP          5.0520    -2.3270    -0.7830 ca         1 SS6      -0.116000
      8 CAJ          3.7070    -4.1570    -0.0290 ca         1 SS6      -0.130000
      9 CAH          2.9190    -3.2790     0.7010 ca         1 SS6      -0.117000
     10 CAM          3.1950    -1.9200     0.7060 ca         1 SS6      -0.151000
     11 CBE          4.2610    -1.4490    -0.0520 ca         1 SS6       0.016800
     12 NBK          4.5640    -0.0710    -0.0810 na         1 SS6       0.132300
     13 NAV          5.8390     0.3370     0.0400 nc         1 SS6      -0.508800
     14 CBF          5.8100     1.6470    -0.0580 cd         1 SS6       0.343600
     15 CBL          7.0570     2.4860     0.0380 c3         1 SS6      -0.072300
     16 CAC          6.9090     3.4750     1.2000 c3         1 SS6      -0.079767
     17 CAD          8.2900     1.6140     0.2710 c3         1 SS6      -0.079767
     18 CAB          7.2310     3.2680    -1.2700 c3         1 SS6      -0.079767
     19 CAR          4.4930     2.1130    -0.2700 cd         1 SS6      -0.303300
     20 CBG          3.7230     0.9760    -0.2910 cc         1 SS6       0.071300
     21 NAX          2.3790     0.7670    -0.5260 ns         1 SS6      -0.491100
     22 CAZ          1.4030     1.6790    -0.2010 c          1 SS6       0.807100
     23 OAF          1.6510     2.7470     0.3210 o          1 SS6      -0.590100
     24 CBC         -1.0620     1.8990    -0.3040 ca         1 SS6       0.109600
     25 CAQ         -2.1970     1.0840    -0.2830 ca         1 SS6      -0.208000
     26 CAK         -1.1790     3.2770    -0.1420 ca         1 SS6      -0.170000
     27 CAG         -2.4450     3.8150     0.0510 ca         1 SS6      -0.075000
     28 CAL         -3.5750     3.0230     0.0770 ca         1 SS6      -0.215000
     29 CBD         -3.4590     1.6390    -0.0970 ca         1 SS6       0.196600
     30 NAY         -4.6510     0.9170    -0.0510 nu         1 SS6      -0.737300
     31 CAS         -7.3730    -0.0570     0.2070 ca         1 SS6      -0.192000
     32 CBB         -8.6440    -0.5960     0.3190 ca         1 SS6       0.156600
     33 NAE         -9.7290     0.1730     0.6520 nv         1 SS6      -0.830200
     34 CAN         -8.8030    -1.9930     0.1360 ca         1 SS6      -0.155000
     35 CAO         -7.7330    -2.7950    -0.1400 ca         1 SS6      -0.138300
     36 C2          -4.2230    -2.5420    -0.6030 ca         1 SS6       0.676900
     37 HAA          6.5800    -4.8600    -0.9870 hc         1 SS6       0.046033
     38 HAAA         5.1620    -5.5830    -1.7340 hc         1 SS6       0.046033
     39 HAAB         5.9660    -4.2120    -2.4990 hc         1 SS6       0.046033
     40 HAP          5.8790    -1.9380    -1.3640 ha         1 SS6       0.155000
     41 HAJ          3.4770    -5.2160    -0.0200 ha         1 SS6       0.134000
     42 HAH          2.0870    -3.6560     1.2810 ha         1 SS6       0.137000
     43 HAM          2.6000    -1.2460     1.3070 ha         1 SS6       0.147000
     44 HAC          6.7930     2.9540     2.1510 hc         1 SS6       0.036478
     45 HACA         7.7930     4.1110     1.2700 hc         1 SS6       0.036478
     46 HACB         6.0430     4.1260     1.0660 hc         1 SS6       0.036478
     47 HAD          8.4330     0.8900    -0.5320 hc         1 SS6       0.036478
     48 HADA         9.1810     2.2420     0.3190 hc         1 SS6       0.036478
     49 HADB         8.2230     1.0610     1.2090 hc         1 SS6       0.036478
     50 HAB          6.3910     3.9410    -1.4530 hc         1 SS6       0.036478
     51 HABA         8.1360     3.8780    -1.2290 hc         1 SS6       0.036478
     52 HABB         7.3170     2.5980    -2.1270 hc         1 SS6       0.036478
     53 HAR          4.1630     3.1270    -0.4080 ha         1 SS6       0.182000
     54 HNAW         0.0610     0.2910    -0.8490 hn         1 SS6       0.317500
     55 HAQ         -2.0910     0.0170    -0.4070 ha         1 SS6       0.169000
     56 HAK         -0.3200     3.9250    -0.1700 ha         1 SS6       0.166000
     57 HAG         -2.5470     4.8850     0.1770 ha         1 SS6       0.134000
     58 HAL         -4.5490     3.4730     0.2320 ha         1 SS6       0.128000
     59 HAS         -7.2720     1.0130     0.3450 ha         1 SS6       0.123000
     60 HNAE        -9.6450     1.1640     0.4950 hn         1 SS6       0.400800
     61 HNAA       -10.6330    -0.1820     0.3860 hn         1 SS6       0.400800
     62 HAN         -9.7930    -2.4260     0.2200 ha         1 SS6       0.136000
     63 HAO         -7.8670    -3.8600    -0.2780 ha         1 SS6       0.154000
     64 H2          -3.3790    -3.1890    -0.8160 h5         1 SS6       0.043100
     65 H29          2.1200    -0.0960    -0.9840 hn         1 SS6       0.327500
     66 H30         -5.4530     1.4990     0.1240 hn         1 SS6       0.443800
     67 NAW          0.1520     1.2440    -0.5310 ns         1 SS6      -0.488100
     68 CAA          5.6660    -4.6380    -1.5410 c3         1 SS6      -0.048800
@<TRIPOS>BOND
     1     1     2 ar  
     2     1     5 ar  
     3     1    35 ar  
     4     2     3 ar  
     5     2    31 ar  
     6     3     4 ar  
     7     3    30 1   
     8     4    36 ar  
     9     5    36 ar  
    10     6     7 ar  
    11     6     8 ar  
    12     6    68 1   
    13     7    11 ar  
    14     7    40 1   
    15     8     9 ar  
    16     8    41 1   
    17     9    10 ar  
    18     9    42 1   
    19    10    11 ar  
    20    10    43 1   
    21    11    12 1   
    22    12    13 1   
    23    12    20 1   
    24    13    14 2   
    25    14    15 1   
    26    14    19 1   
    27    15    16 1   
    28    15    17 1   
    29    15    18 1   
    30    16    44 1   
    31    16    45 1   
    32    16    46 1   
    33    17    47 1   
    34    17    48 1   
    35    17    49 1   
    36    18    50 1   
    37    18    51 1   
    38    18    52 1   
    39    19    20 2   
    40    19    53 1   
    41    20    21 1   
    42    21    22 1   
    43    21    65 1   
    44    22    23 2   
    45    22    67 1   
    46    24    25 ar  
    47    24    26 ar  
    48    24    67 1   
    49    25    29 ar  
    50    25    55 1   
    51    26    27 ar  
    52    26    56 1   
    53    27    28 ar  
    54    27    57 1   
    55    28    29 ar  
    56    28    58 1   
    57    29    30 1   
    58    30    66 1   
    59    31    32 ar  
    60    31    59 1   
    61    32    33 1   
    62    32    34 ar  
    63    33    60 1   
    64    33    61 1   
    65    34    35 ar  
    66    34    62 1   
    67    35    63 1   
    68    36    64 1   
    69    37    68 1   
    70    38    68 1   
    71    39    68 1   
    72    54    67 1   
@<TRIPOS>SUBSTRUCTURE
     1 SS6         1 TEMP              0 ****  ****    0 ROOT
