@<TRIPOS>MOLECULE
SS6
   68    72     1     0     0
SMALL
No Charge or Current Charge


@<TRIPOS>ATOM
      1 C4          -6.4580    -2.2510    -0.8340 ca         1 SS6       0.006000
      2 C5          -6.2300    -0.9280    -0.3770 ca         1 SS6      -0.119000
      3 C6          -4.9990    -0.3160    -0.7310 ca         1 SS6       0.397900
      4 N1          -4.0900    -0.9610    -1.4850 nb         1 SS6      -0.275000
      5 N3          -5.5300    -2.8870    -1.5800 nb         1 SS6      -0.188000
      6 CBA          4.4730    -3.7500    -0.6620 ca         1 SS6      -0.063300
      7 CAP          4.8300    -2.3910    -0.7470 ca         1 SS6      -0.098000
      8 CAJ          3.6300    -4.1810     0.3790 ca         1 SS6      -0.112000
      9 CAH          3.1470    -3.2620     1.3260 ca         1 SS6      -0.099000
     10 CAM          3.5030    -1.9060     1.2360 ca         1 SS6      -0.133000
     11 CBE          4.3450    -1.4620     0.1960 ca         1 SS6       0.016800
     12 NBK          4.6970    -0.1130     0.0980 na         1 SS6       0.183000
     13 NAV          6.0190     0.2600     0.1390 nc         1 SS6      -0.508800
     14 CBF          5.9280     1.5810     0.0640 cd         1 SS6       0.278300
     15 CBL          7.1610     2.4860     0.0660 c3         1 SS6      -0.072300
     16 CAC          7.0800     3.4480     1.2800 c3         1 SS6      -0.079767
     17 CAD          8.4900     1.6790     0.1630 c3         1 SS6      -0.079767
     18 CAB          7.1830     3.3140    -1.2460 c3         1 SS6      -0.079767
     19 CAR          4.5810     2.0250    -0.0150 cd         1 SS6      -0.220000
     20 CBG          3.7760     0.9240     0.0100 cc         1 SS6       0.020600
     21 NAX          2.3860     0.8410    -0.0600 ns         1 SS6      -0.424100
     22 CAZ          1.4570     1.8600    -0.1420 c          1 SS6       0.673100
     23 OAF          1.7590     3.0450    -0.1590 o          1 SS6      -0.590100
     24 CBC         -1.1020     2.0270    -0.2930 ca         1 SS6       0.017000
     25 CAQ         -2.2530     1.2150    -0.2900 ca         1 SS6      -0.190000
     26 CAK         -1.2570     3.4270    -0.3860 ca         1 SS6      -0.152000
     27 CAG         -2.5390     3.9950    -0.4630 ca         1 SS6      -0.057000
     28 CAL         -3.6750     3.1700    -0.4560 ca         1 SS6      -0.197000
     29 CBD         -3.5380     1.7770    -0.3850 ca         1 SS6       0.335000
     30 NAY         -4.6960     0.9990    -0.3660 nu         1 SS6      -0.930900
     31 CAS         -7.2150    -0.2780     0.4080 ca         1 SS6      -0.174000
     32 CBB         -8.4120    -0.9340     0.7280 ca         1 SS6       0.295000
     33 NAE         -9.3580    -0.2970     1.4860 nv         1 SS6      -1.079000
     34 CAN         -8.6370    -2.2400     0.2730 ca         1 SS6      -0.137000
     35 CAO         -7.6650    -2.8950    -0.5030 ca         1 SS6      -0.055000
     36 C2          -4.3990    -2.2140    -1.8670 ca         1 SS6       0.150900
     37 HAA          5.9700    -5.1520    -1.3670 hc         1 SS6       0.046033
     38 HAAA         4.3120    -5.5880    -1.8160 hc         1 SS6       0.046033
     39 HAAB         5.1400    -4.2760    -2.6640 hc         1 SS6       0.046033
     40 HAP          5.4840    -2.0520    -1.5480 ha         1 SS6       0.137000
     41 HAJ          3.3510    -5.2300     0.4580 ha         1 SS6       0.116000
     42 HAH          2.4980    -3.6020     2.1310 ha         1 SS6       0.119000
     43 HAM          3.1320    -1.2020     1.9780 ha         1 SS6       0.129000
     44 HAC          7.0420     2.8840     2.2200 hc         1 SS6       0.036478
     45 HACA         7.9540     4.1110     1.3170 hc         1 SS6       0.036478
     46 HACB         6.1840     4.0780     1.2280 hc         1 SS6       0.036478
     47 HAD          8.5980     0.9930    -0.6870 hc         1 SS6       0.036478
     48 HADA         9.3570     2.3500     0.1620 hc         1 SS6       0.036478
     49 HADB         8.5260     1.0880     1.0860 hc         1 SS6       0.036478
     50 HAB          6.2880     3.9420    -1.3330 hc         1 SS6       0.036478
     51 HABA         8.0600     3.9730    -1.2810 hc         1 SS6       0.036478
     52 HABB         7.2190     2.6540    -2.1210 hc         1 SS6       0.036478
     53 HAR          4.2650     3.0580    -0.0860 ha         1 SS6       0.164000
     54 HNAW         0.0880     0.3680    -0.1680 hn         1 SS6       0.151000
     55 HAQ         -2.1420     0.1410    -0.1940 ha         1 SS6       0.151000
     56 HAK         -0.4000     4.0930    -0.3950 ha         1 SS6       0.148000
     57 HAG         -2.6510     5.0750    -0.5280 ha         1 SS6       0.116000
     58 HAL         -4.6620     3.6200    -0.5170 ha         1 SS6       0.110000
     59 HAS         -7.0570     0.7310     0.7780 ha         1 SS6       0.105000
     60 HNAE        -9.2560     0.6940     1.6970 hn         1 SS6       0.456000
     61 HNAA       -10.2820    -0.7100     1.6030 hn         1 SS6       0.456000
     62 HAN         -9.5620    -2.7530     0.5200 ha         1 SS6       0.118000
     63 HAO         -7.8500    -3.9090    -0.8490 ha         1 SS6       0.136000
     64 H2          -3.6600    -2.7360    -2.4730 h5         1 SS6       0.043100
     65 H29          1.9810    -0.0870    -0.0560 hn         1 SS6       0.327500
     66 H30         -5.5240     1.5260    -0.1010 hn         1 SS6       0.499000
     67 NAW          0.1590     1.3760    -0.1980 ns         1 SS6      -0.162000
     68 CAA          5.0020    -4.7460    -1.6830 c3         1 SS6      -0.048800
@<TRIPOS>BOND
     1     1     2 ar  
     2     1     5 ar  
     3     1    35 ar  
     4     2     3 ar  
     5     2    31 ar  
     6     3     4 ar  
     7     3    30 1   
     8     4    36 ar  
     9     5    36 ar  
    10     6     7 ar  
    11     6     8 ar  
    12     6    68 1   
    13     7    11 ar  
    14     7    40 1   
    15     8     9 ar  
    16     8    41 1   
    17     9    10 ar  
    18     9    42 1   
    19    10    11 ar  
    20    10    43 1   
    21    11    12 1   
    22    12    13 1   
    23    12    20 1   
    24    13    14 2   
    25    14    15 1   
    26    14    19 1   
    27    15    16 1   
    28    15    17 1   
    29    15    18 1   
    30    16    44 1   
    31    16    45 1   
    32    16    46 1   
    33    17    47 1   
    34    17    48 1   
    35    17    49 1   
    36    18    50 1   
    37    18    51 1   
    38    18    52 1   
    39    19    20 2   
    40    19    53 1   
    41    20    21 1   
    42    21    22 1   
    43    21    65 1   
    44    22    23 2   
    45    22    67 1   
    46    24    25 ar  
    47    24    26 ar  
    48    24    67 1   
    49    25    29 ar  
    50    25    55 1   
    51    26    27 ar  
    52    26    56 1   
    53    27    28 ar  
    54    27    57 1   
    55    28    29 ar  
    56    28    58 1   
    57    29    30 1   
    58    30    66 1   
    59    31    32 ar  
    60    31    59 1   
    61    32    33 1   
    62    32    34 ar  
    63    33    60 1   
    64    33    61 1   
    65    34    35 ar  
    66    34    62 1   
    67    35    63 1   
    68    36    64 1   
    69    37    68 1   
    70    38    68 1   
    71    39    68 1   
    72    54    67 1   
@<TRIPOS>SUBSTRUCTURE
     1 SS6         1 TEMP              0 ****  ****    0 ROOT
