@<TRIPOS>MOLECULE
SS7
   48    50     1     0     0
SMALL
abcg2


@<TRIPOS>ATOM
      1 O11         -3.1050    -0.6630     2.3810 o          1 SS7      -0.482000
      2 C8          -3.1590    -0.3760     1.2110 c          1 SS7       0.587600
      3 C5          -3.8210     0.7890     0.5860 ca         1 SS7      -0.148600
      4 C4          -4.5390     1.8210     1.1530 ca         1 SS7      -0.047000
      5 C3          -5.0390     2.7950     0.2910 ca         1 SS7      -0.100000
      6 C2          -4.8190     2.7220    -1.0820 ca         1 SS7      -0.100000
      7 C1          -4.0930     1.6720    -1.6420 ca         1 SS7      -0.047000
      8 C6          -3.6040     0.7160    -0.7780 ca         1 SS7      -0.148600
      9 C7          -2.8020    -0.5010    -1.0560 c          1 SS7       0.587600
     10 O10         -2.4290    -0.8900    -2.1320 o          1 SS7      -0.482000
     11 N9          -2.5800    -1.1050     0.1770 n          1 SS7      -0.390400
     12 C12         -1.7570    -2.2810     0.4500 c3         1 SS7       0.128700
     13 C14         -1.9290    -3.4010    -0.5670 c3         1 SS7      -0.096100
     14 C13         -0.3100    -1.8720     0.6640 c3         1 SS7       0.144600
     15 O15          0.1970    -1.3230    -0.5390 os         1 SS7      -0.358100
     16 C16          1.4170    -0.7190    -0.4340 ca         1 SS7       0.098100
     17 C17          2.5730    -1.4730    -0.6390 ca         1 SS7      -0.071800
     18 C22          2.4940    -2.9390    -0.9500 c3         1 SS7      -0.043300
     19 C18          3.8040    -0.8300    -0.5620 ca         1 SS7      -0.107000
     20 C21          1.4660     0.6510    -0.1690 ca         1 SS7      -0.071800
     21 C23          0.2080     1.4450     0.0230 c3         1 SS7      -0.043300
     22 C20          2.7110     1.2670    -0.1010 ca         1 SS7      -0.107000
     23 C19          3.8610     0.5240    -0.2920 ca         1 SS7       0.103100
     24 O24          5.0900     1.1590    -0.2710 os         1 SS7      -0.363200
     25 C25          5.7310     1.2570     0.9110 c          1 SS7       0.595100
     26 O27          5.2800     0.8160     1.9310 o          1 SS7      -0.460000
     27 C26          7.0360     1.9690     0.7520 c3         1 SS7      -0.157100
     28 H1          -4.7090     1.8780     2.2200 ha         1 SS7       0.138500
     29 H2          -5.6050     3.6230     0.6940 ha         1 SS7       0.122000
     30 H3          -5.2200     3.4950    -1.7240 ha         1 SS7       0.122000
     31 H4          -3.9210     1.6170    -2.7080 ha         1 SS7       0.138500
     32 H5          -2.1030    -2.6600     1.4140 h1         1 SS7       0.075700
     33 H6          -1.4320    -4.2910    -0.1800 hc         1 SS7       0.052367
     34 H7          -2.9820    -3.6440    -0.7020 hc         1 SS7       0.052367
     35 H8          -1.4990    -3.1680    -1.5350 hc         1 SS7       0.052367
     36 H9          -0.2470    -1.1410     1.4790 h1         1 SS7       0.041200
     37 H10          0.2630    -2.7540     0.9720 h1         1 SS7       0.041200
     38 H11          1.7830    -3.1420    -1.7510 hc         1 SS7       0.046367
     39 H12          3.4650    -3.3250    -1.2520 hc         1 SS7       0.046367
     40 H13          2.1690    -3.5170    -0.0820 hc         1 SS7       0.046367
     41 H14          4.7180    -1.3890    -0.7250 ha         1 SS7       0.125000
     42 H15         -0.3190     1.1490     0.9320 hc         1 SS7       0.046367
     43 H16          0.4310     2.5070     0.1120 hc         1 SS7       0.046367
     44 H17         -0.4820     1.3180    -0.8110 hc         1 SS7       0.046367
     45 H18          2.7780     2.3310     0.0930 ha         1 SS7       0.125000
     46 H19          6.8810     2.9580     0.3190 hc         1 SS7       0.071700
     47 H20          7.5300     2.0730     1.7130 hc         1 SS7       0.071700
     48 H21          7.6870     1.4170     0.0730 hc         1 SS7       0.071700
@<TRIPOS>BOND
     1     1     2 2   
     2     2     3 1   
     3     2    11 1   
     4     3     4 ar  
     5     3     8 ar  
     6     4     5 ar  
     7     4    28 1   
     8     5     6 ar  
     9     5    29 1   
    10     6     7 ar  
    11     6    30 1   
    12     7     8 ar  
    13     7    31 1   
    14     8     9 1   
    15     9    10 2   
    16     9    11 1   
    17    11    12 1   
    18    12    13 1   
    19    12    14 1   
    20    12    32 1   
    21    13    33 1   
    22    13    34 1   
    23    13    35 1   
    24    14    15 1   
    25    14    36 1   
    26    14    37 1   
    27    15    16 1   
    28    16    17 ar  
    29    16    20 ar  
    30    17    18 1   
    31    17    19 ar  
    32    18    38 1   
    33    18    39 1   
    34    18    40 1   
    35    19    23 ar  
    36    19    41 1   
    37    20    21 1   
    38    20    22 ar  
    39    21    42 1   
    40    21    43 1   
    41    21    44 1   
    42    22    23 ar  
    43    22    45 1   
    44    23    24 1   
    45    24    25 1   
    46    25    26 2   
    47    25    27 1   
    48    27    46 1   
    49    27    47 1   
    50    27    48 1   
@<TRIPOS>SUBSTRUCTURE
     1 SS7         1 TEMP              0 ****  ****    0 ROOT
