@<TRIPOS>MOLECULE
SS7
   48    50     1     0     0
SMALL
No Charge or Current Charge


@<TRIPOS>ATOM
      1 O11         -2.9100    -0.6170     2.4010 o          1 SS7      -0.482000
      2 C8          -3.0490    -0.3570     1.2150 c          1 SS7       0.587600
      3 C5          -3.6990     0.8440     0.6220 ca         1 SS7      -0.148600
      4 C4          -4.3000     1.9460     1.2470 ca         1 SS7      -0.047000
      5 C3          -4.8380     2.9580     0.4220 ca         1 SS7      -0.100000
      6 C2          -4.7640     2.8540    -0.9890 ca         1 SS7      -0.100000
      7 C1          -4.1520     1.7360    -1.5970 ca         1 SS7      -0.047000
      8 C6          -3.6260     0.7410    -0.7600 ca         1 SS7      -0.148600
      9 C7          -2.9270    -0.5290    -1.1070 c          1 SS7       0.587600
     10 O10         -2.6790    -0.9380    -2.2320 o          1 SS7      -0.482000
     11 N9          -2.6190    -1.1230     0.1290 n          1 SS7      -0.390400
     12 C12         -1.8810    -2.4020     0.3250 c3         1 SS7       0.128700
     13 C14         -2.0610    -3.4540    -0.7970 c3         1 SS7      -0.096100
     14 C13         -0.3790    -2.1330     0.6010 c3         1 SS7       0.144600
     15 O15          0.1730    -1.4130    -0.5150 os         1 SS7      -0.358100
     16 C16          1.4180    -0.8440    -0.3990 ca         1 SS7       0.098100
     17 C17          2.5830    -1.6300    -0.5580 ca         1 SS7      -0.071800
     18 C22          2.5040    -3.1190    -0.8790 c3         1 SS7      -0.043300
     19 C18          3.8450    -1.0180    -0.4270 ca         1 SS7      -0.107000
     20 C21          1.5130     0.5410    -0.1400 ca         1 SS7      -0.071800
     21 C23          0.2560     1.3930     0.0070 c3         1 SS7      -0.043300
     22 C20          2.7840     1.1340    -0.0140 ca         1 SS7      -0.107000
     23 C19          3.9470     0.3520    -0.1410 ca         1 SS7       0.103100
     24 O24          5.1990     0.9140    -0.0420 os         1 SS7      -0.363200
     25 C25          5.5750     1.8050     0.9310 c          1 SS7       0.595100
     26 O27          4.9140     2.0700     1.9250 o          1 SS7      -0.460000
     27 C26          7.0000     2.2970     0.7140 c3         1 SS7      -0.157100
     28 H1          -4.3510     2.0190     2.3310 ha         1 SS7       0.138500
     29 H2          -5.3110     3.8260     0.8750 ha         1 SS7       0.122000
     30 H3          -5.1820     3.6430    -1.6110 ha         1 SS7       0.122000
     31 H4          -4.0900     1.6500    -2.6800 ha         1 SS7       0.138500
     32 H5          -2.2870    -2.8660     1.2350 h1         1 SS7       0.075700
     33 H6          -1.6530    -4.4200    -0.4790 hc         1 SS7       0.052367
     34 H7          -3.1240    -3.5970    -1.0260 hc         1 SS7       0.052367
     35 H8          -1.5390    -3.1630    -1.7160 hc         1 SS7       0.052367
     36 H9          -0.2890    -1.5370     1.5180 h1         1 SS7       0.041200
     37 H10          0.1490    -3.0810     0.7620 h1         1 SS7       0.041200
     38 H11          1.6680    -3.3430    -1.5520 hc         1 SS7       0.046367
     39 H12          3.4180    -3.4720    -1.3720 hc         1 SS7       0.046367
     40 H13          2.3710    -3.7100     0.0340 hc         1 SS7       0.046367
     41 H14          4.7520    -1.6050    -0.5450 ha         1 SS7       0.125000
     42 H15         -0.3190     1.0940     0.8910 hc         1 SS7       0.046367
     43 H16          0.4940     2.4580     0.1140 hc         1 SS7       0.046367
     44 H17         -0.3950     1.2890    -0.8690 hc         1 SS7       0.046367
     45 H18          2.8670     2.2010     0.1770 ha         1 SS7       0.125000
     46 H19          7.0540     2.8030    -0.2560 hc         1 SS7       0.071700
     47 H20          7.3540     2.9350     1.5310 hc         1 SS7       0.071700
     48 H21          7.6540     1.4320     0.5620 hc         1 SS7       0.071700
@<TRIPOS>BOND
     1     1     2 2   
     2     2     3 1   
     3     2    11 1   
     4     3     4 ar  
     5     3     8 ar  
     6     4     5 ar  
     7     4    28 1   
     8     5     6 ar  
     9     5    29 1   
    10     6     7 ar  
    11     6    30 1   
    12     7     8 ar  
    13     7    31 1   
    14     8     9 1   
    15     9    10 2   
    16     9    11 1   
    17    11    12 1   
    18    12    13 1   
    19    12    14 1   
    20    12    32 1   
    21    13    33 1   
    22    13    34 1   
    23    13    35 1   
    24    14    15 1   
    25    14    36 1   
    26    14    37 1   
    27    15    16 1   
    28    16    17 ar  
    29    16    20 ar  
    30    17    18 1   
    31    17    19 ar  
    32    18    38 1   
    33    18    39 1   
    34    18    40 1   
    35    19    23 ar  
    36    19    41 1   
    37    20    21 1   
    38    20    22 ar  
    39    21    42 1   
    40    21    43 1   
    41    21    44 1   
    42    22    23 ar  
    43    22    45 1   
    44    23    24 1   
    45    24    25 1   
    46    25    26 2   
    47    25    27 1   
    48    27    46 1   
    49    27    47 1   
    50    27    48 1   
@<TRIPOS>SUBSTRUCTURE
     1 SS7         1 TEMP              0 ****  ****    0 ROOT
