@<TRIPOS>MOLECULE
SS8
   29    31     1     0     0
SMALL
No Charge or Current Charge


@<TRIPOS>ATOM
      1 C1           4.8310     0.4020     0.3730 c          1 SS8       0.729600
      2 O2           5.0930     1.4940     0.8570 o          1 SS8      -0.714000
      3 O3           5.6720    -0.4710     0.2090 o          1 SS8      -0.714000
      4 C4           3.4240     0.1380    -0.0280 cc         1 SS8      -0.154600
      5 N5           2.2990     1.0050     0.0730 na         1 SS8      -0.080000
      6 C6           1.2070     0.3160    -0.4300 cc         1 SS8      -0.214000
      7 C7           1.5950    -0.8710    -0.8120 cd         1 SS8       0.015000
      8 C8           2.9640    -1.0550    -0.5940 cd         1 SS8      -0.182000
      9 O9           0.5940    -1.6320    -1.3290 os         1 SS8      -0.235000
     10 C10         -0.4920    -0.7520    -1.2240 cd         1 SS8       0.135900
     11 C11         -0.1620     0.4810    -0.6580 cc         1 SS8      -0.132800
     12 C12         -0.9700     1.6660    -0.3930 ce         1 SS8      -0.073200
     13 C13         -2.2790     1.7320    -0.0140 cf         1 SS8      -0.214200
     14 C14         -3.2470     0.6650     0.3010 ca         1 SS8      -0.031800
     15 C15         -2.8450    -0.5470     0.9000 ca         1 SS8      -0.103000
     16 C16         -3.7910    -1.5410     1.2050 ca         1 SS8      -0.116500
     17 C17         -5.1500    -1.3280     0.9250 ca         1 SS8      -0.123000
     18 C18         -5.5640    -0.1160     0.3490 ca         1 SS8      -0.116500
     19 C19         -4.6160     0.8780     0.0450 ca         1 SS8      -0.103000
     20 H8           3.5490    -1.9410    -0.8200 ha         1 SS8       0.146000
     21 H10         -1.4450    -1.1110    -1.5910 h4         1 SS8       0.036100
     22 H12         -0.4290     2.6070    -0.5070 ha         1 SS8       0.170000
     23 H13         -2.6940     2.7350     0.0980 ha         1 SS8       0.165000
     24 H15         -1.8010    -0.7150     1.1510 ha         1 SS8       0.119000
     25 H16         -3.4700    -2.4730     1.6650 ha         1 SS8       0.105500
     26 H17         -5.8830    -2.0970     1.1620 ha         1 SS8       0.102000
     27 H18         -6.6170     0.0550     0.1390 ha         1 SS8       0.105500
     28 H19         -4.9470     1.8130    -0.4010 ha         1 SS8       0.119000
     29 HN5          2.3070     1.9500     0.4470 hn         1 SS8       0.363000
@<TRIPOS>BOND
     1     1     2 1   
     2     1     3 1   
     3     1     4 1   
     4     4     5 1   
     5     4     8 2   
     6     5     6 1   
     7     5    29 1   
     8     6     7 2   
     9     6    11 1   
    10     7     8 1   
    11     7     9 1   
    12     8    20 1   
    13     9    10 1   
    14    10    11 2   
    15    10    21 1   
    16    11    12 1   
    17    12    13 2   
    18    12    22 1   
    19    13    14 1   
    20    13    23 1   
    21    14    15 ar  
    22    14    19 ar  
    23    15    16 ar  
    24    15    24 1   
    25    16    17 ar  
    26    16    25 1   
    27    17    18 ar  
    28    17    26 1   
    29    18    19 ar  
    30    18    27 1   
    31    19    28 1   
@<TRIPOS>SUBSTRUCTURE
     1 SS8         1 TEMP              0 ****  ****    0 ROOT
