@<TRIPOS>MOLECULE
SS8
   29    31     1     0     0
SMALL
abcg2


@<TRIPOS>ATOM
      1 C1           4.7440     0.3350     0.3930 c          1 SS8       0.729600
      2 O2           4.8740     1.4380     0.9650 o          1 SS8      -0.714000
      3 O3           5.6230    -0.5190     0.1790 o          1 SS8      -0.714000
      4 C4           3.3640     0.0060    -0.0870 cc         1 SS8      -0.154600
      5 N5           2.3300     0.8910     0.0970 na         1 SS8      -0.080000
      6 C6           1.2000     0.3560    -0.4250 cc         1 SS8      -0.214000
      7 C7           1.5290    -0.8750    -0.9360 cd         1 SS8       0.015000
      8 C8           2.8980    -1.1260    -0.7370 cd         1 SS8      -0.182000
      9 O9           0.4370    -1.4700    -1.4680 os         1 SS8      -0.235000
     10 C10         -0.5880    -0.5970    -1.2780 cd         1 SS8       0.135900
     11 C11         -0.2030     0.5470    -0.6360 cc         1 SS8      -0.132800
     12 C12         -1.0010     1.7250    -0.3180 ce         1 SS8      -0.073200
     13 C13         -2.2840     1.7890     0.0560 cf         1 SS8      -0.214200
     14 C14         -3.2050     0.6800     0.3480 ca         1 SS8      -0.031800
     15 C15         -2.8210    -0.4210     1.1180 ca         1 SS8      -0.103000
     16 C16         -3.7240    -1.4320     1.4060 ca         1 SS8      -0.116500
     17 C17         -5.0290    -1.3640     0.9320 ca         1 SS8      -0.123000
     18 C18         -5.4280    -0.2680     0.1790 ca         1 SS8      -0.116500
     19 C19         -4.5250     0.7490    -0.1010 ca         1 SS8      -0.103000
     20 H8           3.4860    -1.9850    -1.0140 ha         1 SS8       0.146000
     21 H10         -1.5480    -0.9010    -1.6620 h4         1 SS8       0.036100
     22 H12         -0.4770     2.6690    -0.4300 ha         1 SS8       0.170000
     23 H13         -2.7100     2.7820     0.1540 ha         1 SS8       0.165000
     24 H15         -1.8120    -0.4800     1.5040 ha         1 SS8       0.119000
     25 H16         -3.4110    -2.2750     2.0100 ha         1 SS8       0.105500
     26 H17         -5.7340    -2.1540     1.1590 ha         1 SS8       0.102000
     27 H18         -6.4440    -0.2000    -0.1880 ha         1 SS8       0.105500
     28 H19         -4.8470     1.6070    -0.6800 ha         1 SS8       0.119000
     29 HN5          2.4430     1.7790     0.5580 hn         1 SS8       0.363000
@<TRIPOS>BOND
     1     1     2 1   
     2     1     3 1   
     3     1     4 1   
     4     4     5 1   
     5     4     8 2   
     6     5     6 1   
     7     5    29 1   
     8     6     7 2   
     9     6    11 1   
    10     7     8 1   
    11     7     9 1   
    12     8    20 1   
    13     9    10 1   
    14    10    11 2   
    15    10    21 1   
    16    11    12 1   
    17    12    13 2   
    18    12    22 1   
    19    13    14 1   
    20    13    23 1   
    21    14    15 ar  
    22    14    19 ar  
    23    15    16 ar  
    24    15    24 1   
    25    16    17 ar  
    26    16    25 1   
    27    17    18 ar  
    28    17    26 1   
    29    18    19 ar  
    30    18    27 1   
    31    19    28 1   
@<TRIPOS>SUBSTRUCTURE
     1 SS8         1 TEMP              0 ****  ****    0 ROOT
