@<TRIPOS>MOLECULE
SS9
   31    30     1     0     0
SMALL
bcc


@<TRIPOS>ATOM
      1 C2          -5.6440    -0.3450    -0.0080 c3         1 SS9       0.149800
      2 C3          -4.3390     0.4350     0.0240 c3         1 SS9      -0.082400
      3 C4          -3.1210    -0.4750     0.0090 c3         1 SS9       0.159800
      4 C6          -0.7040    -0.5510     0.0140 c3         1 SS9       0.160800
      5 C7           0.5690     0.2800     0.0610 c3         1 SS9      -0.079400
      6 C8           1.8280    -0.5770    -0.0050 c3         1 SS9      -0.074400
      7 C9           3.1050     0.2530     0.0610 c3         1 SS9      -0.068400
      8 C10          4.3480    -0.6190    -0.0280 c3         1 SS9       0.039700
      9 N1          -6.7880     0.5570    -0.0050 n8         1 SS9      -0.882800
     10 N5          -1.8870     0.2860     0.0640 n7         1 SS9      -0.803200
     11 S11          5.8330     0.4380     0.0750 sh         1 SS9      -0.413900
     12 H1          -5.6310    -1.0300    -0.8690 h1         1 SS9       0.025700
     13 H2          -5.7040    -0.9760     0.8830 h1         1 SS9       0.025700
     14 H3          -4.2980     1.1070    -0.8430 hc         1 SS9       0.053200
     15 H4          -4.3140     1.0680     0.9150 hc         1 SS9       0.053200
     16 H5          -3.1540    -1.1350     0.8830 h1         1 SS9       0.026200
     17 H6          -3.1680    -1.1350    -0.8730 h1         1 SS9       0.026200
     18 H7          -0.6820    -1.1980    -0.8780 h1         1 SS9       0.027200
     19 H8          -0.7260    -1.2260     0.8770 h1         1 SS9       0.027200
     20 H9           0.5720     0.9890    -0.7740 hc         1 SS9       0.048200
     21 H10          0.5750     0.8790     0.9770 hc         1 SS9       0.048200
     22 H11          1.8210    -1.3000     0.8170 hc         1 SS9       0.038200
     23 H12          1.8220    -1.1630    -0.9300 hc         1 SS9       0.038200
     24 H13          3.1110     0.9830    -0.7540 hc         1 SS9       0.055700
     25 H14          3.1210     0.8240     0.9940 hc         1 SS9       0.055700
     26 H15          4.3640    -1.3440     0.7860 h1         1 SS9       0.056700
     27 H16          4.3620    -1.1660    -0.9710 h1         1 SS9       0.056700
     28 H17         -6.8060     1.0690    -0.8790 hn         1 SS9       0.336300
     29 H18         -7.6430     0.0160     0.0080 hn         1 SS9       0.336300
     30 H20         -1.8650     0.9230    -0.7250 hn         1 SS9       0.348800
     31 H22          6.7540    -0.5200    -0.0760 hs         1 SS9       0.211800
@<TRIPOS>BOND
     1     1     2 1   
     2     1     9 1   
     3     1    12 1   
     4     1    13 1   
     5     2     3 1   
     6     2    14 1   
     7     2    15 1   
     8     3    10 1   
     9     3    16 1   
    10     3    17 1   
    11     4     5 1   
    12     4    10 1   
    13     4    18 1   
    14     4    19 1   
    15     5     6 1   
    16     5    20 1   
    17     5    21 1   
    18     6     7 1   
    19     6    22 1   
    20     6    23 1   
    21     7     8 1   
    22     7    24 1   
    23     7    25 1   
    24     8    11 1   
    25     8    26 1   
    26     8    27 1   
    27     9    28 1   
    28     9    29 1   
    29    10    30 1   
    30    11    31 1   
@<TRIPOS>SUBSTRUCTURE
     1 SS9         1 TEMP              0 ****  ****    0 ROOT
