@<TRIPOS>MOLECULE
SS9
   31    30     1     0     0
SMALL
No Charge or Current Charge


@<TRIPOS>ATOM
      1 C2          -5.7280    -0.3040     0.0260 c3         1 SS9       0.149800
      2 C3          -4.3690     0.4240     0.0400 c3         1 SS9      -0.082400
      3 C4          -3.1800    -0.5540    -0.0150 c3         1 SS9       0.159800
      4 C6          -0.6950    -0.6540    -0.0230 c3         1 SS9       0.160800
      5 C7           0.5690     0.2290     0.0210 c3         1 SS9      -0.079400
      6 C8           1.8770    -0.5920    -0.0040 c3         1 SS9      -0.074400
      7 C9           3.1460     0.2870     0.0400 c3         1 SS9      -0.068400
      8 C10          4.4490    -0.5340     0.0160 c3         1 SS9       0.087600
      9 N1          -6.8550     0.6450     0.0840 n8         1 SS9      -0.993200
     10 N5          -1.9050     0.1860     0.0080 n7         1 SS9      -0.858400
     11 S11          5.9730     0.5170     0.0690 sh         1 SS9      -0.461800
     12 H1          -5.8180    -0.9020    -0.8910 h1         1 SS9       0.025700
     13 H2          -5.7940    -0.9800     0.8900 h1         1 SS9       0.025700
     14 H3          -4.3150     1.1090    -0.8150 hc         1 SS9       0.053200
     15 H4          -4.2940     1.0310     0.9510 hc         1 SS9       0.053200
     16 H5          -3.2380    -1.2370     0.8440 h1         1 SS9       0.026200
     17 H6          -3.2540    -1.1580    -0.9300 h1         1 SS9       0.026200
     18 H7          -0.6760    -1.2630    -0.9370 h1         1 SS9       0.027200
     19 H8          -0.6830    -1.3380     0.8370 h1         1 SS9       0.027200
     20 H9           0.5590     0.9160    -0.8350 hc         1 SS9       0.048200
     21 H10          0.5460     0.8440     0.9290 hc         1 SS9       0.048200
     22 H11          1.8860    -1.2810     0.8510 hc         1 SS9       0.038200
     23 H12          1.8970    -1.2090    -0.9120 hc         1 SS9       0.038200
     24 H13          3.1420     0.9750    -0.8150 hc         1 SS9       0.055700
     25 H14          3.1300     0.9030     0.9480 hc         1 SS9       0.055700
     26 H15          4.4690    -1.2140     0.8780 h1         1 SS9       0.056700
     27 H16          4.4810    -1.1430    -0.8980 h1         1 SS9       0.056700
     28 H17         -6.8510     1.2220    -0.7660 hn         1 SS9       0.391500
     29 H18         -7.7370     0.1220     0.0130 hn         1 SS9       0.391500
     30 H20         -1.8820     0.8070    -0.8090 hn         1 SS9       0.404000
     31 H22          6.8610    -0.5080     0.0330 hs         1 SS9       0.211800
@<TRIPOS>BOND
     1     1     2 1   
     2     1     9 1   
     3     1    12 1   
     4     1    13 1   
     5     2     3 1   
     6     2    14 1   
     7     2    15 1   
     8     3    10 1   
     9     3    16 1   
    10     3    17 1   
    11     4     5 1   
    12     4    10 1   
    13     4    18 1   
    14     4    19 1   
    15     5     6 1   
    16     5    20 1   
    17     5    21 1   
    18     6     7 1   
    19     6    22 1   
    20     6    23 1   
    21     7     8 1   
    22     7    24 1   
    23     7    25 1   
    24     8    11 1   
    25     8    26 1   
    26     8    27 1   
    27     9    28 1   
    28     9    29 1   
    29    10    30 1   
    30    11    31 1   
@<TRIPOS>SUBSTRUCTURE
     1 SS9         1 TEMP              0 ****  ****    0 ROOT
