@<TRIPOS>MOLECULE
SSA
   48    50     1     0     0
SMALL
No Charge or Current Charge


@<TRIPOS>ATOM
      1 N10         -2.1260    -1.6820    -1.3250 n8         1 SSA      -1.007200
      2 CA          -2.3530    -0.3860    -2.0610 c3         1 SSA       0.086500
      3 CB          -3.7570     0.2040    -1.7480 c3         1 SSA       0.125600
      4 OG          -4.7720    -0.8070    -1.9050 oh         1 SSA      -0.667000
      5 C9          -1.2290     0.6990    -1.9190 c          1 SSA       0.625100
      6 O9          -1.3100     1.6490    -1.1540 o          1 SSA      -0.511100
      7 N8          -0.1720     0.5090    -2.7500 ns         1 SSA      -0.624300
      8 S1           1.1440     1.4940    -2.9730 s6         1 SSA       1.439500
      9 O1S          1.9900     0.8630    -3.9900 o          1 SSA      -0.534000
     10 O2S          0.6820     2.8770    -3.1240 o          1 SSA      -0.534000
     11 O5           1.8580     1.3320    -1.5030 os         1 SSA      -0.541700
     12 C5           2.3610     0.0290    -1.1510 c3         1 SSA       0.184600
     13 C4           3.1480     0.1560     0.1870 c5         1 SSA       0.171300
     14 O4           2.2620     0.5270     1.2720 os         1 SSA      -0.421000
     15 C3           3.7980    -1.1710     0.6900 c5         1 SSA       0.107300
     16 O3           4.7830    -0.9620     1.7120 oh         1 SSA      -0.699000
     17 C2           2.5420    -1.8770     1.2790 c5         1 SSA       0.082300
     18 O2           2.9090    -2.9060     2.2190 oh         1 SSA      -0.690000
     19 C1           1.7620    -0.6680     1.9270 c5         1 SSA       0.314300
     20 N9           0.2970    -0.7090     1.8550 na         1 SSA      -0.287300
     21 C8          -0.4740    -1.8670     1.7040 cc         1 SSA       0.421700
     22 N7          -1.7920    -1.5950     1.7500 nd         1 SSA      -0.561100
     23 C7          -1.8270    -0.2140     1.9610 ca         1 SSA      -0.099600
     24 C6          -2.9390     0.6370     2.1290 ca         1 SSA       0.450900
     25 N6          -4.2200     0.1830     2.1190 nv         1 SSA      -1.066900
     26 N1          -2.7820     1.9540     2.3330 nb         1 SSA      -0.302000
     27 C11         -1.5040     2.4000     2.3750 ca         1 SSA       0.183900
     28 N3          -0.3800     1.6550     2.2410 nb         1 SSA      -0.216000
     29 C10         -0.5720     0.3370     2.0250 ca         1 SSA       0.146500
     30 HN11        -2.9990    -2.2200    -1.4080 hn         1 SSA       0.426000
     31 HN12        -2.0880    -1.4910    -0.3110 hn         1 SSA       0.426000
     32 HA          -2.3720    -0.6380    -3.1310 h1         1 SSA       0.075700
     33 HB1         -3.7660     0.5920    -0.7210 h1         1 SSA       0.038700
     34 HB2         -3.9500     1.0490    -2.4230 h1         1 SSA       0.038700
     35 HOG         -5.6410    -0.3750    -1.7440 ho         1 SSA       0.456000
     36 HN8         -0.1370    -0.2990    -3.3450 hn         1 SSA       0.347500
     37 H5'1         1.5410    -0.6920    -1.0400 h1         1 SSA       0.052700
     38 H5'2         3.0510    -0.3480    -1.9190 h1         1 SSA       0.052700
     39 H4           3.9060     0.9400     0.0560 h1         1 SSA       0.110700
     40 H3           4.2300    -1.7470    -0.1410 h1         1 SSA       0.052700
     41 HO3          4.5970    -1.6700     2.3780 ho         1 SSA       0.525000
     42 H2           1.9490    -2.3130     0.4630 h1         1 SSA       0.050700
     43 HO2          3.0120    -3.7520     1.7180 ho         1 SSA       0.515000
     44 H1           2.0060    -0.6090     2.9950 h2         1 SSA       0.124700
     45 H8          -0.0350    -2.8500     1.5780 h5         1 SSA       0.072800
     46 HN61        -4.9760     0.8530     2.0070 hn         1 SSA       0.505000
     47 HN62        -4.3820    -0.7680     1.7990 hn         1 SSA       0.505000
     48 H6          -1.3630     3.4660     2.5420 h5         1 SSA       0.046100
@<TRIPOS>BOND
     1     1     2 1   
     2     1    30 1   
     3     1    31 1   
     4     2     3 1   
     5     2     5 1   
     6     2    32 1   
     7     3     4 1   
     8     3    33 1   
     9     3    34 1   
    10     4    35 1   
    11     5     6 2   
    12     5     7 1   
    13     7     8 1   
    14     7    36 1   
    15     8     9 2   
    16     8    10 2   
    17     8    11 1   
    18    11    12 1   
    19    12    13 1   
    20    12    37 1   
    21    12    38 1   
    22    13    14 1   
    23    13    15 1   
    24    13    39 1   
    25    14    19 1   
    26    15    16 1   
    27    15    17 1   
    28    15    40 1   
    29    16    41 1   
    30    17    18 1   
    31    17    19 1   
    32    17    42 1   
    33    18    43 1   
    34    19    20 1   
    35    19    44 1   
    36    20    21 1   
    37    20    29 1   
    38    21    22 2   
    39    21    45 1   
    40    22    23 1   
    41    23    24 ar  
    42    23    29 ar  
    43    24    25 1   
    44    24    26 ar  
    45    25    46 1   
    46    25    47 1   
    47    26    27 ar  
    48    27    28 ar  
    49    27    48 1   
    50    28    29 ar  
@<TRIPOS>SUBSTRUCTURE
     1 SSA         1 TEMP              0 ****  ****    0 ROOT
