@<TRIPOS>MOLECULE
SSA
   48    50     1     0     0
SMALL
abcg2


@<TRIPOS>ATOM
      1 N10         -2.4710    -1.4890    -1.5160 n8         1 SSA      -1.007200
      2 CA          -2.1790    -0.9080    -2.8110 c3         1 SSA       0.086500
      3 CB          -3.3670    -0.2630    -3.5280 c3         1 SSA       0.125600
      4 OG          -4.2930    -1.2830    -3.8060 oh         1 SSA      -0.667000
      5 C9          -1.1120     0.1530    -2.6190 c          1 SSA       0.625100
      6 O9          -1.2050     1.0450    -1.8120 o          1 SSA      -0.511100
      7 N8          -0.0180     0.0240    -3.4460 ns         1 SSA      -0.624300
      8 S1           1.2400     1.1150    -3.4880 s6         1 SSA       1.439500
      9 O1S          2.1950     0.5480    -4.4060 o          1 SSA      -0.534000
     10 O2S          0.7440     2.4510    -3.6580 o          1 SSA      -0.534000
     11 O5           1.7950     1.0870    -2.0080 os         1 SSA      -0.541700
     12 C5           2.3480    -0.1290    -1.4720 c3         1 SSA       0.184600
     13 C4           2.8570     0.2120    -0.0870 c5         1 SSA       0.171300
     14 O4           1.8020     0.7320     0.7170 os         1 SSA      -0.421000
     15 C3           3.3860    -1.0200     0.6410 c5         1 SSA       0.107300
     16 O3           4.3960    -0.6060     1.5210 oh         1 SSA      -0.699000
     17 C2           2.1390    -1.4720     1.4080 c5         1 SSA       0.082300
     18 O2           2.3930    -2.2280     2.5510 oh         1 SSA      -0.690000
     19 C1           1.5400    -0.1230     1.8000 c5         1 SSA       0.314300
     20 N9           0.1280    -0.1480     2.0590 na         1 SSA      -0.287300
     21 C8          -0.8670    -0.6120     1.2370 cc         1 SSA       0.421700
     22 N7          -2.0580    -0.4260     1.7170 nd         1 SSA      -0.561100
     23 C7          -1.8510     0.1990     2.9210 ca         1 SSA      -0.099600
     24 C6          -2.7250     0.6640     3.9210 ca         1 SSA       0.450900
     25 N6          -4.0490     0.5410     3.8360 nv         1 SSA      -1.066900
     26 N1          -2.1880     1.2490     4.9980 nb         1 SSA      -0.302000
     27 C11         -0.8650     1.3650     5.0810 ca         1 SSA       0.183900
     28 N3           0.0500     0.9670     4.2140 nb         1 SSA      -0.216000
     29 C10         -0.4990     0.3880     3.1500 ca         1 SSA       0.146500
     30 HN11        -3.1340    -2.2440    -1.6320 hn         1 SSA       0.426000
     31 HN12        -2.9140    -0.8060    -0.9120 hn         1 SSA       0.426000
     32 HA          -1.7900    -1.7040    -3.4530 h1         1 SSA       0.075700
     33 HB1         -3.7920     0.5120    -2.8780 h1         1 SSA       0.038700
     34 HB2         -3.0210     0.2320    -4.4450 h1         1 SSA       0.038700
     35 HOG         -5.0800    -0.8830    -4.1860 ho         1 SSA       0.456000
     36 HN8          0.0550    -0.7590    -4.0850 hn         1 SSA       0.347500
     37 H5'1         1.5780    -0.9050    -1.4470 h1         1 SSA       0.052700
     38 H5'2         3.1780    -0.4760    -2.0910 h1         1 SSA       0.052700
     39 H4           3.6420     0.9680    -0.1800 h1         1 SSA       0.110700
     40 H3           3.7430    -1.7920    -0.0540 h1         1 SSA       0.052700
     41 HO3          4.5130    -1.2930     2.1880 ho         1 SSA       0.525000
     42 H2           1.4680    -1.9960     0.7170 h1         1 SSA       0.050700
     43 HO2          2.4730    -3.1540     2.3030 ho         1 SSA       0.515000
     44 H1           2.0100     0.2430     2.7190 h2         1 SSA       0.124700
     45 H8          -0.6630    -1.0840     0.2880 h5         1 SSA       0.072800
     46 HN61        -4.6420     0.9070     4.5600 hn         1 SSA       0.505000
     47 HN62        -4.4820     0.1380     3.0230 hn         1 SSA       0.505000
     48 H6          -0.4950     1.8500     5.9780 h5         1 SSA       0.046100
@<TRIPOS>BOND
     1     1     2 1   
     2     1    30 1   
     3     1    31 1   
     4     2     3 1   
     5     2     5 1   
     6     2    32 1   
     7     3     4 1   
     8     3    33 1   
     9     3    34 1   
    10     4    35 1   
    11     5     6 2   
    12     5     7 1   
    13     7     8 1   
    14     7    36 1   
    15     8     9 2   
    16     8    10 2   
    17     8    11 1   
    18    11    12 1   
    19    12    13 1   
    20    12    37 1   
    21    12    38 1   
    22    13    14 1   
    23    13    15 1   
    24    13    39 1   
    25    14    19 1   
    26    15    16 1   
    27    15    17 1   
    28    15    40 1   
    29    16    41 1   
    30    17    18 1   
    31    17    19 1   
    32    17    42 1   
    33    18    43 1   
    34    19    20 1   
    35    19    44 1   
    36    20    21 1   
    37    20    29 1   
    38    21    22 2   
    39    21    45 1   
    40    22    23 1   
    41    23    24 ar  
    42    23    29 ar  
    43    24    25 1   
    44    24    26 ar  
    45    25    46 1   
    46    25    47 1   
    47    26    27 ar  
    48    27    28 ar  
    49    27    48 1   
    50    28    29 ar  
@<TRIPOS>SUBSTRUCTURE
     1 SSA         1 TEMP              0 ****  ****    0 ROOT
