@<TRIPOS>MOLECULE
SSB
   26    26     1     0     0
SMALL
No Charge or Current Charge


@<TRIPOS>ATOM
      1 S1           2.5330    -0.6660    -0.2360 s4         1 SSB       0.122400
      2 C2           0.7160    -0.7310     0.2070 c5         1 SSB      -0.016100
      3 C3           0.0830     0.6170    -0.2430 c5         1 SSB      -0.052700
      4 C4           1.1060     1.6480     0.3160 c5         1 SSB      -0.054400
      5 C5           2.4500     1.2040    -0.3230 c5         1 SSB      -0.014100
      6 O6           2.6670    -1.1670    -1.6570 o          1 SSB      -0.504000
      7 C7          -1.3620     0.8440     0.2660 c3         1 SSB      -0.062400
      8 C8          -2.3990    -0.1650    -0.2800 c3         1 SSB      -0.075400
      9 C9          -3.8350     0.1190     0.2120 c3         1 SSB      -0.075400
     10 C10         -4.8690    -0.8870    -0.3310 c3         1 SSB      -0.089100
     11 H21          0.2700    -1.6010    -0.2900 h1         1 SSB       0.080700
     12 H22          0.6520    -0.8730     1.2940 h1         1 SSB       0.080700
     13 H3           0.0460     0.6750    -1.3380 hc         1 SSB       0.072700
     14 H41          0.8520     2.6780     0.0380 hc         1 SSB       0.049700
     15 H42          1.1560     1.6150     1.4110 hc         1 SSB       0.049700
     16 H51          3.3220     1.6170     0.2000 h1         1 SSB       0.080200
     17 H52          2.5120     1.4820    -1.3830 h1         1 SSB       0.080200
     18 H71         -1.3770     0.8060     1.3630 hc         1 SSB       0.038700
     19 H72         -1.6840     1.8560    -0.0100 hc         1 SSB       0.038700
     20 H81         -2.3830    -0.1400    -1.3770 hc         1 SSB       0.040700
     21 H82         -2.1150    -1.1800     0.0220 hc         1 SSB       0.040700
     22 H91         -3.8560     0.0940     1.3080 hc         1 SSB       0.035700
     23 H92         -4.1300     1.1310    -0.0920 hc         1 SSB       0.035700
     24 H101        -4.8970    -0.8610    -1.4270 hc         1 SSB       0.032033
     25 H102        -4.6210    -1.9070    -0.0140 hc         1 SSB       0.032033
     26 H103        -5.8700    -0.6450     0.0440 hc         1 SSB       0.032033
@<TRIPOS>BOND
     1     1     2 1   
     2     1     5 1   
     3     1     6 2   
     4     2     3 1   
     5     2    11 1   
     6     2    12 1   
     7     3     4 1   
     8     3     7 1   
     9     3    13 1   
    10     4     5 1   
    11     4    14 1   
    12     4    15 1   
    13     5    16 1   
    14     5    17 1   
    15     7     8 1   
    16     7    18 1   
    17     7    19 1   
    18     8     9 1   
    19     8    20 1   
    20     8    21 1   
    21     9    10 1   
    22     9    22 1   
    23     9    23 1   
    24    10    24 1   
    25    10    25 1   
    26    10    26 1   
@<TRIPOS>SUBSTRUCTURE
     1 SSB         1 TEMP              0 ****  ****    0 ROOT
