@<TRIPOS>MOLECULE
SSB
   26    26     1     0     0
SMALL
bcc


@<TRIPOS>ATOM
      1 S1           2.4020    -0.6620    -0.4400 s4         1 SSB       0.095600
      2 C2           0.6760    -0.7280     0.1230 c5         1 SSB      -0.016100
      3 C3           0.0570     0.5960    -0.3040 c5         1 SSB      -0.052700
      4 C4           1.0580     1.6510     0.1720 c5         1 SSB      -0.054400
      5 C5           2.4750     1.1450    -0.1080 c5         1 SSB      -0.014100
      6 O6           2.3590    -0.8220    -1.9450 o          1 SSB      -0.477200
      7 C7          -1.3470     0.8250     0.2400 c3         1 SSB      -0.062400
      8 C8          -2.3740    -0.1930    -0.2420 c3         1 SSB      -0.075400
      9 C9          -3.7910     0.1340     0.2130 c3         1 SSB      -0.075400
     10 C10         -4.8130    -0.8940    -0.2550 c3         1 SSB      -0.089100
     11 H21          0.2270    -1.6210    -0.3120 h1         1 SSB       0.080700
     12 H22          0.6870    -0.8320     1.2130 h1         1 SSB       0.080700
     13 H3           0.0150     0.6130    -1.3990 hc         1 SSB       0.072700
     14 H41          0.8810     2.6120    -0.3130 hc         1 SSB       0.049700
     15 H42          0.9300     1.8010     1.2460 hc         1 SSB       0.049700
     16 H51          3.1570     1.3120     0.7250 h1         1 SSB       0.080200
     17 H52          2.9210     1.5720    -1.0060 h1         1 SSB       0.080200
     18 H71         -1.3150     0.8250     1.3360 hc         1 SSB       0.038700
     19 H72         -1.6700     1.8280    -0.0560 hc         1 SSB       0.038700
     20 H81         -2.3460    -0.2450    -1.3370 hc         1 SSB       0.040700
     21 H82         -2.1060    -1.1920     0.1160 hc         1 SSB       0.040700
     22 H91         -3.8150     0.2010     1.3050 hc         1 SSB       0.035700
     23 H92         -4.0710     1.1240    -0.1580 hc         1 SSB       0.035700
     24 H101        -4.8410    -0.9540    -1.3450 hc         1 SSB       0.032033
     25 H102        -4.5720    -1.8890     0.1230 hc         1 SSB       0.032033
     26 H103        -5.8170    -0.6440     0.0880 hc         1 SSB       0.032033
@<TRIPOS>BOND
     1     1     2 1   
     2     1     5 1   
     3     1     6 2   
     4     2     3 1   
     5     2    11 1   
     6     2    12 1   
     7     3     4 1   
     8     3     7 1   
     9     3    13 1   
    10     4     5 1   
    11     4    14 1   
    12     4    15 1   
    13     5    16 1   
    14     5    17 1   
    15     7     8 1   
    16     7    18 1   
    17     7    19 1   
    18     8     9 1   
    19     8    20 1   
    20     8    21 1   
    21     9    10 1   
    22     9    22 1   
    23     9    23 1   
    24    10    24 1   
    25    10    25 1   
    26    10    26 1   
@<TRIPOS>SUBSTRUCTURE
     1 SSB         1 TEMP              0 ****  ****    0 ROOT
