@<TRIPOS>MOLECULE
SSC
   21    21     1     0     0
SMALL
No Charge or Current Charge


@<TRIPOS>ATOM
      1 NS          -0.0370    -0.8050    -0.1290 n7         1 SSC      -0.863400
      2 C1S         -0.4570    -0.6910    -1.5790 c5         1 SSC       0.034500
      3 CS           0.6700    -0.2200    -2.5990 c          1 SSC       0.699000
      4 O1S          1.7440     0.1780    -2.1620 o          1 SSC      -0.749000
      5 O2S          0.4740    -0.3350    -3.8020 o          1 SSC      -0.749000
      6 CSS         -1.6300     0.3420    -1.5960 c5         1 SSC      -0.071400
      7 C3S         -2.1350     0.2690    -0.1370 c5         1 SSC      -0.096400
      8 C4S         -0.7760     0.2440     0.6070 c5         1 SSC       0.195500
      9 C5S         -0.8870    -0.0410     2.1230 c3         1 SSC      -0.184400
     10 C6S          0.4180     0.3640     2.8270 c          1 SSC       0.721000
     11 O3S          1.2860    -0.4810     2.9920 o          1 SSC      -0.756500
     12 O4S          0.5420     1.5270     3.1840 o          1 SSC      -0.756500
     13 HNS          0.9720    -0.6090    -0.0650 hn         1 SSC       0.455000
     14 H1S         -0.8170    -1.6720    -1.9190 h1         1 SSC       0.025700
     15 HSS1        -2.4060     0.0850    -2.3260 hc         1 SSC       0.019200
     16 HSS2        -1.2760     1.3520    -1.8350 hc         1 SSC       0.019200
     17 H3S1        -2.7270    -0.6360     0.0480 hc         1 SSC       0.009200
     18 H3S2        -2.7500     1.1340     0.1350 hc         1 SSC       0.009200
     19 H4S         -0.2790     1.2160     0.4730 h1         1 SSC       0.026700
     20 H5S1        -1.0910    -1.1120     2.2480 hc         1 SSC       0.005700
     21 H5S2        -1.7050     0.5960     2.4830 hc         1 SSC       0.005700
@<TRIPOS>BOND
     1     1     2 1   
     2     1     8 1   
     3     1    13 1   
     4     2     3 1   
     5     2     6 1   
     6     2    14 1   
     7     3     4 1   
     8     3     5 1   
     9     6     7 1   
    10     6    15 1   
    11     6    16 1   
    12     7     8 1   
    13     7    17 1   
    14     7    18 1   
    15     8     9 1   
    16     8    19 1   
    17     9    10 1   
    18     9    20 1   
    19     9    21 1   
    20    10    11 1   
    21    10    12 1   
@<TRIPOS>SUBSTRUCTURE
     1 SSC         1 TEMP              0 ****  ****    0 ROOT
