@<TRIPOS>MOLECULE
SSC
   21    21     1     0     0
SMALL
abcg2


@<TRIPOS>ATOM
      1 NS           0.0700    -0.5430    -0.1600 n7         1 SSC      -0.863400
      2 C1S         -0.3540    -0.5820    -1.5580 c5         1 SSC       0.034500
      3 CS           0.6810    -0.0330    -2.5580 c          1 SSC       0.699000
      4 O1S          1.7560     0.4090    -2.1040 o          1 SSC      -0.749000
      5 O2S          0.3470    -0.0830    -3.7590 o          1 SSC      -0.749000
      6 CSS         -1.6800     0.2030    -1.6120 c5         1 SSC      -0.071400
      7 C3S         -2.1300     0.2290    -0.1560 c5         1 SSC      -0.096400
      8 C4S         -0.8080     0.3520     0.5920 c5         1 SSC       0.195500
      9 C5S         -0.8720    -0.0270     2.0580 c3         1 SSC      -0.184400
     10 C6S          0.4630     0.0770     2.8130 c          1 SSC       0.721000
     11 O3S          0.5720    -0.6110     3.8490 o          1 SSC      -0.756500
     12 O4S          1.3240     0.8600     2.3590 o          1 SSC      -0.756500
     13 HNS          1.0240    -0.2090    -0.1170 hn         1 SSC       0.455000
     14 H1S         -0.5530    -1.6220    -1.8530 h1         1 SSC       0.025700
     15 HSS1        -2.4100    -0.2550    -2.2800 hc         1 SSC       0.019200
     16 HSS2        -1.5160     1.2250    -1.9640 hc         1 SSC       0.019200
     17 H3S1        -2.6260    -0.7090     0.1130 hc         1 SSC       0.009200
     18 H3S2        -2.8200     1.0440     0.0700 hc         1 SSC       0.009200
     19 H4S         -0.4750     1.3990     0.5210 h1         1 SSC       0.026700
     20 H5S1        -1.2660    -1.0440     2.1520 hc         1 SSC       0.005700
     21 H5S2        -1.5950     0.6240     2.5660 hc         1 SSC       0.005700
@<TRIPOS>BOND
     1     1     2 1   
     2     1     8 1   
     3     1    13 1   
     4     2     3 1   
     5     2     6 1   
     6     2    14 1   
     7     3     4 1   
     8     3     5 1   
     9     6     7 1   
    10     6    15 1   
    11     6    16 1   
    12     7     8 1   
    13     7    17 1   
    14     7    18 1   
    15     8     9 1   
    16     8    19 1   
    17     9    10 1   
    18     9    20 1   
    19     9    21 1   
    20    10    11 1   
    21    10    12 1   
@<TRIPOS>SUBSTRUCTURE
     1 SSC         1 TEMP              0 ****  ****    0 ROOT
