@<TRIPOS>MOLECULE
SSF
   39    41     1     0     0
SMALL
bcc


@<TRIPOS>ATOM
      1 C1           3.7930    -3.1360    -0.3470 cc         1 SSF      -0.185000
      2 C2           2.5590    -2.5980    -0.1810 cd         1 SSF      -0.053300
      3 C3           3.5320    -0.4290     0.0500 cd         1 SSF      -0.070300
      4 C4           4.8170    -0.9780    -0.1140 cd         1 SSF      -0.101000
      5 C5           4.9520    -2.3200    -0.3100 cc         1 SSF      -0.137000
      6 C10          3.0740     0.8700     0.2540 cc         1 SSF      -0.016900
      7 C11          1.2760    -0.4840     0.1650 cd         1 SSF      -0.211300
      8 C12          1.6820     0.8500     0.3210 cc         1 SSF      -0.051200
      9 C13          0.8490     2.0510     0.6270 c3         1 SSF      -0.031900
     10 C17         -0.0470    -1.0810     0.2880 c          1 SSF       0.631900
     11 C18         -1.2080    -0.3040    -0.1700 ca         1 SSF      -0.279600
     12 C19         -1.1350     0.5820    -1.2510 ca         1 SSF      -0.044000
     13 C20         -2.4540    -0.5070     0.4210 ca         1 SSF       0.002000
     14 C21         -2.2550     1.2370    -1.7000 ca         1 SSF      -0.289000
     15 C23         -3.6020     0.1560     0.0190 ca         1 SSF      -0.244600
     16 C25         -3.5110     1.0540    -1.0810 ca         1 SSF       0.253600
     17 O27         -0.1920    -2.2080     0.7610 o          1 SSF      -0.576100
     18 C28         -4.8940    -0.0980     0.7770 c          1 SSF       0.936200
     19 O29         -4.8640    -0.9520     1.6790 o          1 SSF      -0.829800
     20 O30         -5.9020     0.5760     0.4490 o          1 SSF      -0.829800
     21 N31         -4.5910     1.7010    -1.5610 nv         1 SSF      -0.868200
     22 N34          2.4200    -1.2520     0.0240 na         1 SSF       0.092700
     23 O35          3.8840     1.9480     0.3980 os         1 SSF      -0.306900
     24 C36          4.0100     2.7390    -0.7770 c3         1 SSF       0.121700
     25 H1           3.8740    -4.2020    -0.5030 ha         1 SSF       0.140000
     26 H2           1.6600    -3.1900    -0.1990 h4         1 SSF       0.191000
     27 H4           5.6730    -0.3170    -0.0830 ha         1 SSF       0.144000
     28 H5           5.9290    -2.7630    -0.4400 ha         1 SSF       0.128000
     29 H13          0.5210     2.5660    -0.2770 hc         1 SSF       0.049700
     30 H13A        -0.0440     1.7940     1.1930 hc         1 SSF       0.049700
     31 H13B         1.4280     2.7660     1.2120 hc         1 SSF       0.049700
     32 H19         -0.1930     0.7380    -1.7630 ha         1 SSF       0.107000
     33 H20         -2.5380    -1.1930     1.2540 ha         1 SSF       0.163000
     34 H21         -2.1830     1.9050    -2.5510 ha         1 SSF       0.105000
     35 HN31        -4.4700     2.4670    -2.1990 hn         1 SSF       0.439800
     36 HN3A        -5.4310     1.6330    -1.0000 hn         1 SSF       0.439800
     37 H36          4.4410     2.1640    -1.6010 h1         1 SSF       0.028033
     38 H36A         3.0460     3.1420    -1.0980 h1         1 SSF       0.028033
     39 H36B         4.6740     3.5680    -0.5390 h1         1 SSF       0.028033
@<TRIPOS>BOND
     1     1     2 2   
     2     1     5 1   
     3     1    25 1   
     4     2    22 1   
     5     2    26 1   
     6     3     4 1   
     7     3     6 2   
     8     3    22 1   
     9     4     5 2   
    10     4    27 1   
    11     5    28 1   
    12     6     8 1   
    13     6    23 1   
    14     7     8 2   
    15     7    10 1   
    16     7    22 1   
    17     8     9 1   
    18     9    29 1   
    19     9    30 1   
    20     9    31 1   
    21    10    11 1   
    22    10    17 2   
    23    11    12 ar  
    24    11    13 ar  
    25    12    14 ar  
    26    12    32 1   
    27    13    15 ar  
    28    13    33 1   
    29    14    16 ar  
    30    14    34 1   
    31    15    16 ar  
    32    15    18 1   
    33    16    21 1   
    34    18    19 1   
    35    18    20 1   
    36    21    35 1   
    37    21    36 1   
    38    23    24 1   
    39    24    37 1   
    40    24    38 1   
    41    24    39 1   
@<TRIPOS>SUBSTRUCTURE
     1 SSF         1 TEMP              0 ****  ****    0 ROOT
