@<TRIPOS>MOLECULE
SSF
   39    41     1     0     0
SMALL
No Charge or Current Charge


@<TRIPOS>ATOM
      1 C1           4.0180    -3.2210    -0.0620 cc         1 SSF      -0.167000
      2 C2           2.6940    -2.7860     0.0110 cd         1 SSF      -0.086000
      3 C3           3.6190    -0.5540     0.0300 cd         1 SSF      -0.121000
      4 C4           4.9800    -0.9670    -0.0580 cd         1 SSF      -0.083000
      5 C5           5.1570    -2.3320    -0.0880 cc         1 SSF      -0.119000
      6 C10          3.0960     0.6970     0.0350 cc         1 SSF      -0.016900
      7 C11          1.3030    -0.7130     0.0930 cd         1 SSF      -0.211300
      8 C12          1.6600     0.6450     0.0920 cc         1 SSF      -0.051200
      9 C13          0.7700     1.8650     0.2190 c3         1 SSF      -0.031900
     10 C17         -0.0750    -1.3000     0.1060 c          1 SSF       0.631900
     11 C18         -1.2450    -0.4680    -0.3350 ca         1 SSF      -0.279600
     12 C19         -1.2070     0.2180    -1.5620 ca         1 SSF      -0.026000
     13 C20         -2.4090    -0.4160     0.4560 ca         1 SSF       0.020000
     14 C21         -2.3150     0.9730    -1.9710 ca         1 SSF      -0.271000
     15 C23         -3.5250     0.3480     0.0490 ca         1 SSF      -0.244600
     16 C25         -3.4630     1.0400    -1.1740 ca         1 SSF       0.392000
     17 O27         -0.2850    -2.4630     0.4270 o          1 SSF      -0.576100
     18 C28         -4.7440     0.3870     0.9300 c          1 SSF       0.725600
     19 O29         -5.0040    -0.6090     1.5870 o          1 SSF      -0.724500
     20 O30         -5.4000     1.4190     0.9960 o          1 SSF      -0.724500
     21 N31         -4.5070     1.7840    -1.6290 nv         1 SSF      -1.117000
     22 N34          2.5360    -1.3940     0.1190 na         1 SSF       0.194100
     23 O35          3.9700     1.7540    -0.0960 os         1 SSF      -0.330100
     24 C36          3.5490     3.1080    -0.3260 c3         1 SSF       0.144900
     25 H1           4.2180    -4.2870    -0.1170 ha         1 SSF       0.122000
     26 H2           1.8300    -3.4340     0.0050 h4         1 SSF       0.173000
     27 H4           5.8080    -0.2680    -0.1090 ha         1 SSF       0.126000
     28 H5           6.1540    -2.7570    -0.1540 ha         1 SSF       0.110000
     29 H13          0.6110     2.3490    -0.7510 hc         1 SSF       0.049700
     30 H13A        -0.2060     1.6220     0.6480 hc         1 SSF       0.049700
     31 H13B         1.1970     2.5970     0.9100 hc         1 SSF       0.049700
     32 H19         -0.3230     0.1660    -2.1960 ha         1 SSF       0.089000
     33 H20         -2.4410    -0.9640     1.3970 ha         1 SSF       0.145000
     34 H21         -2.2750     1.5020    -2.9190 ha         1 SSF       0.087000
     35 HN31        -4.3150     2.4950    -2.3290 hn         1 SSF       0.495000
     36 HN3A        -5.2010     2.0280    -0.9180 hn         1 SSF       0.495000
     37 H36          2.8480     3.1660    -1.1680 h1         1 SSF       0.028033
     38 H36A         3.0830     3.5340     0.5700 h1         1 SSF       0.028033
     39 H36B         4.4170     3.7330    -0.5690 h1         1 SSF       0.028033
@<TRIPOS>BOND
     1     1     2 2   
     2     1     5 1   
     3     1    25 1   
     4     2    22 1   
     5     2    26 1   
     6     3     4 1   
     7     3     6 2   
     8     3    22 1   
     9     4     5 2   
    10     4    27 1   
    11     5    28 1   
    12     6     8 1   
    13     6    23 1   
    14     7     8 2   
    15     7    10 1   
    16     7    22 1   
    17     8     9 1   
    18     9    29 1   
    19     9    30 1   
    20     9    31 1   
    21    10    11 1   
    22    10    17 2   
    23    11    12 ar  
    24    11    13 ar  
    25    12    14 ar  
    26    12    32 1   
    27    13    15 ar  
    28    13    33 1   
    29    14    16 ar  
    30    14    34 1   
    31    15    16 ar  
    32    15    18 1   
    33    16    21 1   
    34    18    19 1   
    35    18    20 1   
    36    21    35 1   
    37    21    36 1   
    38    23    24 1   
    39    24    37 1   
    40    24    38 1   
    41    24    39 1   
@<TRIPOS>SUBSTRUCTURE
     1 SSF         1 TEMP              0 ****  ****    0 ROOT
