@<TRIPOS>MOLECULE
SSH
   23    22     1     0     0
SMALL
bcc


@<TRIPOS>ATOM
      1 O2          -3.1480     0.2520    -1.4550 o          1 SSH      -0.826300
      2 C1          -2.9580    -0.1840    -0.3100 c          1 SSH       0.900600
      3 O1          -3.6820    -0.9820     0.3320 o          1 SSH      -0.826300
      4 C2          -1.6920     0.2840     0.4410 c3         1 SSH       0.000100
      5 C3          -0.4360    -0.1060    -0.3360 c3         1 SSH      -0.098400
      6 C4           0.8570     0.2850     0.3730 c3         1 SSH       0.113100
      7 O4           0.8870     1.6650     0.6850 oh         1 SSH      -0.598800
      8 C5           2.1060    -0.1060    -0.4370 c3         1 SSH       0.108100
      9 O5           2.0600    -1.4520    -0.8610 oh         1 SSH      -0.577800
     10 C6           3.3750     0.1810     0.3500 c3         1 SSH       0.100400
     11 O6           4.4940    -0.0810    -0.4660 oh         1 SSH      -0.592800
     12 OT          -1.6880    -0.2750     1.7330 oh         1 SSH      -0.650800
     13 H2C1        -1.7360     1.3800     0.5120 h1         1 SSH       0.033700
     14 H3C1        -0.4700     0.3640    -1.3240 hc         1 SSH       0.053200
     15 H3C2        -0.4400    -1.1860    -0.5040 hc         1 SSH       0.053200
     16 H4           0.8980    -0.2320     1.3390 h1         1 SSH       0.074700
     17 HA           0.7390     2.1600    -0.1290 ho         1 SSH       0.395000
     18 H5           2.1160     0.4920    -1.3570 h1         1 SSH       0.074700
     19 HB           2.0710    -2.0170    -0.0800 ho         1 SSH       0.394000
     20 H6C1         3.3770    -0.4520     1.2510 h1         1 SSH       0.024700
     21 H6C2         3.3610     1.2210     0.6930 h1         1 SSH       0.024700
     22 H6           5.2840     0.1190     0.0440 ho         1 SSH       0.388000
     23 HT          -2.4870    -0.8350     1.7100 ho         1 SSH       0.434000
@<TRIPOS>BOND
     1     1     2 1   
     2     2     3 1   
     3     2     4 1   
     4     4     5 1   
     5     4    12 1   
     6     4    13 1   
     7     5     6 1   
     8     5    14 1   
     9     5    15 1   
    10     6     7 1   
    11     6     8 1   
    12     6    16 1   
    13     7    17 1   
    14     8     9 1   
    15     8    10 1   
    16     8    18 1   
    17     9    19 1   
    18    10    11 1   
    19    10    20 1   
    20    10    21 1   
    21    11    22 1   
    22    12    23 1   
@<TRIPOS>SUBSTRUCTURE
     1 SSH         1 TEMP              0 ****  ****    0 ROOT
