@<TRIPOS>MOLECULE
SSH
   23    22     1     0     0
SMALL
No Charge or Current Charge


@<TRIPOS>ATOM
      1 O2          -3.3690     0.8380    -1.2440 o          1 SSH      -0.721000
      2 C1          -3.0800     0.0130    -0.3870 c          1 SSH       0.690000
      3 O1          -3.7930    -0.9410    -0.1000 o          1 SSH      -0.721000
      4 C2          -1.7980     0.2540     0.4940 c3         1 SSH       0.023300
      5 C3          -0.5030    -0.1200    -0.2800 c3         1 SSH      -0.098400
      6 C4           0.8220     0.3170     0.4070 c3         1 SSH       0.136300
      7 O4           0.8560     1.7570     0.4820 oh         1 SSH      -0.721000
      8 C5           2.1020    -0.2090    -0.3260 c3         1 SSH       0.131300
      9 O5           2.1090    -1.6440    -0.3860 oh         1 SSH      -0.640000
     10 C6           3.4240     0.2300     0.3640 c3         1 SSH       0.123600
     11 O6           4.5480    -0.4150    -0.2670 oh         1 SSH      -0.715000
     12 OT          -1.8520    -0.4990     1.7350 oh         1 SSH      -0.713000
     13 H2C1        -1.7740     1.3300     0.7170 h1         1 SSH       0.033700
     14 H3C1        -0.5450     0.3240    -1.2830 hc         1 SSH       0.053200
     15 H3C2        -0.4980    -1.2060    -0.4320 hc         1 SSH       0.053200
     16 H4           0.8340    -0.1060     1.4220 h1         1 SSH       0.074700
     17 HA           0.5880     2.1040    -0.3990 ho         1 SSH       0.494000
     18 H5           2.1060     0.2020    -1.3460 h1         1 SSH       0.074700
     19 HB           3.0660    -1.8680    -0.4680 ho         1 SSH       0.433000
     20 H6C1         3.3830    -0.0330     1.4300 h1         1 SSH       0.024700
     21 H6C2         3.5250     1.3210     0.2930 h1         1 SSH       0.024700
     22 H6           5.3630    -0.0510     0.1520 ho         1 SSH       0.487000
     23 HT          -2.6270    -1.1030     1.6230 ho         1 SSH       0.473000
@<TRIPOS>BOND
     1     1     2 1   
     2     2     3 1   
     3     2     4 1   
     4     4     5 1   
     5     4    12 1   
     6     4    13 1   
     7     5     6 1   
     8     5    14 1   
     9     5    15 1   
    10     6     7 1   
    11     6     8 1   
    12     6    16 1   
    13     7    17 1   
    14     8     9 1   
    15     8    10 1   
    16     8    18 1   
    17     9    19 1   
    18    10    11 1   
    19    10    20 1   
    20    10    21 1   
    21    11    22 1   
    22    12    23 1   
@<TRIPOS>SUBSTRUCTURE
     1 SSH         1 TEMP              0 ****  ****    0 ROOT
