@<TRIPOS>MOLECULE
SSK
   32    33     1     0     0
SMALL
No Charge or Current Charge


@<TRIPOS>ATOM
      1 N1         -29.5040   -52.5550    36.4700 n8         1 SSK      -1.001200
      2 C8         -28.4740   -53.1540    35.5880 c3         1 SSK       0.196300
      3 C9         -27.6240   -52.0820    34.8910 ca         1 SSK      -0.087300
      4 C14        -27.1450   -50.9450    35.5820 ca         1 SSK      -0.102500
      5 C13        -26.3580   -49.9860    34.9190 ca         1 SSK      -0.112500
      6 C12        -26.0410   -50.1520    33.5610 ca         1 SSK      -0.109000
      7 C11        -26.5100   -51.2780    32.8660 ca         1 SSK      -0.112500
      8 C10        -27.2970   -52.2380    33.5280 ca         1 SSK      -0.102500
      9 C1         -27.5970   -54.2220    36.3400 c3         1 SSK       0.196300
     10 C2         -28.4220   -55.4220    36.8230 ca         1 SSK      -0.087300
     11 C7         -28.5660   -56.5450    35.9820 ca         1 SSK      -0.102500
     12 C6         -29.3250   -57.6550    36.3950 ca         1 SSK      -0.112500
     13 C5         -29.9490   -57.6520    37.6540 ca         1 SSK      -0.109000
     14 C4         -29.8130   -56.5390    38.4990 ca         1 SSK      -0.112500
     15 C3         -29.0550   -55.4290    38.0870 ca         1 SSK      -0.102500
     16 N2         -26.7880   -53.6330    37.4390 n8         1 SSK      -1.001200
     17 H1         -30.0220   -53.3260    36.9030 hn         1 SSK       0.405750
     18 H2         -28.9990   -52.1550    37.2680 hn         1 SSK       0.405750
     19 H4         -29.0210   -53.6950    34.8020 h1         1 SSK       0.047700
     20 H5         -27.3800   -50.8010    36.6340 ha         1 SSK       0.117000
     21 H6         -25.9950   -49.1150    35.4590 ha         1 SSK       0.112750
     22 H7         -25.4320   -49.4100    33.0490 ha         1 SSK       0.113000
     23 H8         -26.2650   -51.4090    31.8140 ha         1 SSK       0.112750
     24 H9         -27.6520   -53.1070    32.9770 ha         1 SSK       0.117000
     25 H10        -26.8760   -54.6030    35.6020 h1         1 SSK       0.047700
     26 H11        -28.0910   -56.5600    35.0040 ha         1 SSK       0.117000
     27 H12        -29.4300   -58.5160    35.7390 ha         1 SSK       0.112750
     28 H13        -30.5360   -58.5110    37.9730 ha         1 SSK       0.113000
     29 H14        -30.2960   -56.5350    39.4740 ha         1 SSK       0.112750
     30 H15        -28.9590   -54.5750    38.7530 ha         1 SSK       0.117000
     31 H16        -26.1300   -54.3430    37.7770 hn         1 SSK       0.405750
     32 H17        -26.1820   -52.9090    37.0400 hn         1 SSK       0.405750
@<TRIPOS>BOND
     1     1     2 1   
     2     1    17 1   
     3     1    18 1   
     4     2     3 1   
     5     2     9 1   
     6     2    19 1   
     7     3     4 ar  
     8     3     8 ar  
     9     4     5 ar  
    10     4    20 1   
    11     5     6 ar  
    12     5    21 1   
    13     6     7 ar  
    14     6    22 1   
    15     7     8 ar  
    16     7    23 1   
    17     8    24 1   
    18     9    10 1   
    19     9    16 1   
    20     9    25 1   
    21    10    11 ar  
    22    10    15 ar  
    23    11    12 ar  
    24    11    26 1   
    25    12    13 ar  
    26    12    27 1   
    27    13    14 ar  
    28    13    28 1   
    29    14    15 ar  
    30    14    29 1   
    31    15    30 1   
    32    16    31 1   
    33    16    32 1   
@<TRIPOS>SUBSTRUCTURE
     1 SSK         1 TEMP              0 ****  ****    0 ROOT
