@<TRIPOS>MOLECULE
SSK
   32    33     1     0     0
SMALL
abcg2


@<TRIPOS>ATOM
      1 N1         -29.4600   -52.5850    36.5620 n8         1 SSK      -1.001200
      2 C8         -28.5060   -53.1600    35.6170 c3         1 SSK       0.196300
      3 C9         -27.6680   -52.1000    34.9300 ca         1 SSK      -0.087300
      4 C14        -27.4440   -50.8450    35.4930 ca         1 SSK      -0.102500
      5 C13        -26.6260   -49.9140    34.8580 ca         1 SSK      -0.112500
      6 C12        -26.0220   -50.2240    33.6450 ca         1 SSK      -0.109000
      7 C11        -26.2420   -51.4730    33.0700 ca         1 SSK      -0.112500
      8 C10        -27.0560   -52.4000    33.7100 ca         1 SSK      -0.102500
      9 C1         -27.5610   -54.2390    36.2500 c3         1 SSK       0.196300
     10 C2         -28.3670   -55.4060    36.7700 ca         1 SSK      -0.087300
     11 C7         -28.7680   -56.4040    35.8790 ca         1 SSK      -0.102500
     12 C6         -29.5550   -57.4680    36.3030 ca         1 SSK      -0.112500
     13 C5         -29.9520   -57.5540    37.6350 ca         1 SSK      -0.109000
     14 C4         -29.5560   -56.5690    38.5320 ca         1 SSK      -0.112500
     15 C3         -28.7710   -55.5010    38.1020 ca         1 SSK      -0.102500
     16 N2         -26.7650   -53.6140    37.3070 n8         1 SSK      -1.001200
     17 H1         -30.1270   -53.2990    36.8340 hn         1 SSK       0.405750
     18 H2         -28.9740   -52.3240    37.4140 hn         1 SSK       0.405750
     19 H4         -29.0810   -53.6760    34.8460 h1         1 SSK       0.047700
     20 H5         -27.9170   -50.5840    36.4310 ha         1 SSK       0.117000
     21 H6         -26.4640   -48.9440    35.3120 ha         1 SSK       0.112750
     22 H7         -25.3890   -49.4990    33.1480 ha         1 SSK       0.113000
     23 H8         -25.7840   -51.7240    32.1210 ha         1 SSK       0.112750
     24 H9         -27.2250   -53.3700    33.2540 ha         1 SSK       0.117000
     25 H10        -26.9390   -54.6160    35.4290 h1         1 SSK       0.047700
     26 H11        -28.4560   -56.3460    34.8420 ha         1 SSK       0.117000
     27 H12        -29.8530   -58.2340    35.5970 ha         1 SSK       0.112750
     28 H13        -30.5610   -58.3850    37.9700 ha         1 SSK       0.113000
     29 H14        -29.8570   -56.6280    39.5710 ha         1 SSK       0.112750
     30 H15        -28.4680   -54.7370    38.8040 ha         1 SSK       0.117000
     31 H16        -26.1770   -54.3090    37.7560 hn         1 SSK       0.405750
     32 H17        -26.1430   -52.9240    36.8990 hn         1 SSK       0.405750
@<TRIPOS>BOND
     1     1     2 1   
     2     1    17 1   
     3     1    18 1   
     4     2     3 1   
     5     2     9 1   
     6     2    19 1   
     7     3     4 ar  
     8     3     8 ar  
     9     4     5 ar  
    10     4    20 1   
    11     5     6 ar  
    12     5    21 1   
    13     6     7 ar  
    14     6    22 1   
    15     7     8 ar  
    16     7    23 1   
    17     8    24 1   
    18     9    10 1   
    19     9    16 1   
    20     9    25 1   
    21    10    11 ar  
    22    10    15 ar  
    23    11    12 ar  
    24    11    26 1   
    25    12    13 ar  
    26    12    27 1   
    27    13    14 ar  
    28    13    28 1   
    29    14    15 ar  
    30    14    29 1   
    31    15    30 1   
    32    16    31 1   
    33    16    32 1   
@<TRIPOS>SUBSTRUCTURE
     1 SSK         1 TEMP              0 ****  ****    0 ROOT
