@<TRIPOS>MOLECULE
SSM
   30    29     1     0     0
SMALL
No Charge or Current Charge


@<TRIPOS>ATOM
      1 C2           1.2720     3.6970     0.0930 c3         1 SSM      -0.177100
      2 C            1.1350     2.2190    -0.2480 c          1 SSM       0.605100
      3 O            1.0510     1.8200    -1.4000 o          1 SSM      -0.606100
      4 N            1.1100     1.3800     0.8460 ns         1 SSM      -0.495900
      5 CA           1.0010    -0.1030     0.8040 c3         1 SSM       0.045700
      6 CB          -0.2830    -0.6070     0.0800 c3         1 SSM      -0.072400
      7 CG          -1.5810     0.0850     0.5570 c3         1 SSM      -0.033100
      8 SD          -3.0620    -0.6010    -0.3130 s4         1 SSM       0.175400
      9 OD1         -3.2240    -2.0350     0.1410 o          1 SSM      -0.508000
     10 CE          -4.3210     0.3960     0.5950 c3         1 SSM      -0.064800
     11 C3           2.3220    -0.7630     0.2820 c          1 SSM       0.600100
     12 O3           3.3410    -0.1290     0.0290 o          1 SSM      -0.599100
     13 N2           2.2850    -2.1350     0.1270 ns         1 SSM      -0.498900
     14 C1           3.4100    -2.9430    -0.3500 c3         1 SSM       0.095300
     15 H2           2.1690     3.8400     0.7060 hc         1 SSM       0.060700
     16 H2A          1.2850     4.3360    -0.7970 hc         1 SSM       0.060700
     17 H2B          0.4700     3.9800     0.7830 hc         1 SSM       0.060700
     18 HN           1.2060     1.8270     1.7510 hn         1 SSM       0.320500
     19 HA           0.9160    -0.4340     1.8470 h1         1 SSM       0.067700
     20 HB          -0.1780    -0.4650    -1.0020 hc         1 SSM       0.066200
     21 HBA         -0.3910    -1.6860     0.2430 hc         1 SSM       0.066200
     22 HG          -1.7190    -0.0630     1.6360 h1         1 SSM       0.076700
     23 HGA         -1.5430     1.1610     0.3450 h1         1 SSM       0.076700
     24 HE          -4.2100     1.4500     0.3130 h1         1 SSM       0.079033
     25 HEA         -5.3190     0.0380     0.3190 h1         1 SSM       0.079033
     26 HEB         -4.1660     0.2760     1.6740 h1         1 SSM       0.079033
     27 HN2          1.4200    -2.6050     0.3680 hn         1 SSM       0.318500
     28 H1           4.2620    -2.8290     0.3320 h1         1 SSM       0.041033
     29 H1A          3.1140    -3.9990    -0.3850 h1         1 SSM       0.041033
     30 H1B          3.7000    -2.6150    -1.3560 h1         1 SSM       0.041033
@<TRIPOS>BOND
     1     1     2 1   
     2     1    15 1   
     3     1    16 1   
     4     1    17 1   
     5     2     3 2   
     6     2     4 1   
     7     4     5 1   
     8     4    18 1   
     9     5     6 1   
    10     5    11 1   
    11     5    19 1   
    12     6     7 1   
    13     6    20 1   
    14     6    21 1   
    15     7     8 1   
    16     7    22 1   
    17     7    23 1   
    18     8     9 2   
    19     8    10 1   
    20    10    24 1   
    21    10    25 1   
    22    10    26 1   
    23    11    12 2   
    24    11    13 1   
    25    13    14 1   
    26    13    27 1   
    27    14    28 1   
    28    14    29 1   
    29    14    30 1   
@<TRIPOS>SUBSTRUCTURE
     1 SSM         1 TEMP              0 ****  ****    0 ROOT
