@<TRIPOS>MOLECULE
SSM
   30    29     1     0     0
SMALL
bcc


@<TRIPOS>ATOM
      1 C2           1.4900     3.4910    -0.0900 c3         1 SSM      -0.177100
      2 C            1.3710     1.9950    -0.2200 c          1 SSM       0.672100
      3 O            1.6060     1.4100    -1.2690 o          1 SSM      -0.606100
      4 N            0.9940     1.3400     0.8910 ns         1 SSM      -0.562900
      5 CA           0.8710    -0.0950     0.9360 c3         1 SSM       0.045700
      6 CB          -0.3550    -0.6150     0.1770 c3         1 SSM      -0.072400
      7 CG          -1.6210     0.1040     0.6120 c3         1 SSM      -0.033100
      8 SD          -3.0520    -0.6260    -0.2340 s4         1 SSM       0.148600
      9 OD1         -3.1460    -2.0600     0.2400 o          1 SSM      -0.481200
     10 CE          -4.3250     0.2980     0.6450 c3         1 SSM      -0.064800
     11 C3           2.2140    -0.7360     0.5470 c          1 SSM       0.667100
     12 O3           3.2650    -0.2210     0.8950 o          1 SSM      -0.599100
     13 N2           2.1670    -1.8970    -0.1130 ns         1 SSM      -0.565900
     14 C1           3.3620    -2.6340    -0.4490 c3         1 SSM       0.095300
     15 H2           2.5330     3.7800    -0.2210 hc         1 SSM       0.060700
     16 H2A          0.9190     3.9710    -0.8840 hc         1 SSM       0.060700
     17 H2B          1.1450     3.8740     0.8670 hc         1 SSM       0.060700
     18 HN           0.8340     1.8570     1.7390 hn         1 SSM       0.320500
     19 HA           0.7320    -0.3490     1.9910 h1         1 SSM       0.067700
     20 HB          -0.2150    -0.5120    -0.9000 hc         1 SSM       0.066200
     21 HBA         -0.4800    -1.6770     0.3980 hc         1 SSM       0.066200
     22 HG          -1.7850     0.0130     1.6900 h1         1 SSM       0.076700
     23 HGA         -1.6040     1.1620     0.3460 h1         1 SSM       0.076700
     24 HE          -4.2230     1.3590     0.4220 h1         1 SSM       0.079033
     25 HEA         -5.2930    -0.0520     0.2920 h1         1 SSM       0.079033
     26 HEB         -4.2320     0.1250     1.7170 h1         1 SSM       0.079033
     27 HN2          1.2840    -2.3000    -0.3710 hn         1 SSM       0.318500
     28 H1           3.8960    -2.9690     0.4420 h1         1 SSM       0.041033
     29 H1A          3.0750    -3.5090    -1.0250 h1         1 SSM       0.041033
     30 H1B          4.0460    -2.0350    -1.0500 h1         1 SSM       0.041033
@<TRIPOS>BOND
     1     1     2 1   
     2     1    15 1   
     3     1    16 1   
     4     1    17 1   
     5     2     3 2   
     6     2     4 1   
     7     4     5 1   
     8     4    18 1   
     9     5     6 1   
    10     5    11 1   
    11     5    19 1   
    12     6     7 1   
    13     6    20 1   
    14     6    21 1   
    15     7     8 1   
    16     7    22 1   
    17     7    23 1   
    18     8     9 2   
    19     8    10 1   
    20    10    24 1   
    21    10    25 1   
    22    10    26 1   
    23    11    12 2   
    24    11    13 1   
    25    13    14 1   
    26    13    27 1   
    27    14    28 1   
    28    14    29 1   
    29    14    30 1   
@<TRIPOS>SUBSTRUCTURE
     1 SSM         1 TEMP              0 ****  ****    0 ROOT
