@<TRIPOS>MOLECULE
SSN
   12    11     1     0     0
SMALL
No Charge or Current Charge


@<TRIPOS>ATOM
      1 C1           1.6250     0.0240     0.0280 c          1 SSN       0.720000
      2 O1           2.1720    -0.4870     0.9930 o          1 SSN      -0.736000
      3 C2           0.2410     0.6680     0.2350 c3         1 SSN      -0.205400
      4 O2           2.0850    -0.0000    -1.1030 o          1 SSN      -0.736000
      5 C3          -0.8920    -0.3820     0.0400 c3         1 SSN      -0.176400
      6 C4          -2.2840     0.2160     0.2760 c          1 SSN       0.574900
      7 O4          -2.9160     0.8170    -0.5870 o          1 SSN      -0.574100
      8 H2           0.1390     1.0290     1.2670 hc         1 SSN       0.020200
      9 H2A          0.0640     1.4440    -0.5210 hc         1 SSN       0.020200
     10 H3          -0.8390    -0.7840    -0.9790 hc         1 SSN       0.067700
     11 H3A         -0.7340    -1.1780     0.7770 hc         1 SSN       0.067700
     12 H4          -2.7010     0.0730     1.2980 h4         1 SSN      -0.045800
@<TRIPOS>BOND
     1     1     2 1   
     2     1     3 1   
     3     1     4 1   
     4     3     5 1   
     5     3     8 1   
     6     3     9 1   
     7     5     6 1   
     8     5    10 1   
     9     5    11 1   
    10     6     7 2   
    11     6    12 1   
@<TRIPOS>SUBSTRUCTURE
     1 SSN         1 TEMP              0 ****  ****    0 ROOT
