@<TRIPOS>MOLECULE
SSN
   12    11     1     0     0
SMALL
bcc


@<TRIPOS>ATOM
      1 C1           1.6220     0.0180     0.0030 c          1 SSN       0.930600
      2 O1           1.7600    -1.1730     0.3400 o          1 SSN      -0.841300
      3 C2           0.1980     0.6110     0.0490 c3         1 SSN      -0.205400
      4 O2           2.5220     0.8040    -0.3520 o          1 SSN      -0.841300
      5 C3          -0.9180    -0.4270     0.1260 c3         1 SSN      -0.176400
      6 C4          -2.2400     0.2280     0.3480 c          1 SSN       0.574900
      7 O4          -3.2230     0.0900    -0.3410 o          1 SSN      -0.574100
      8 H2           0.1430     1.2740     0.9210 hc         1 SSN       0.020200
      9 H2A          0.0530     1.2580    -0.8190 hc         1 SSN       0.020200
     10 H3          -0.9520    -1.0520    -0.7680 hc         1 SSN       0.067700
     11 H3A         -0.7340    -1.0820     0.9840 hc         1 SSN       0.067700
     12 H4          -2.2700     0.8910     1.2340 h4         1 SSN      -0.045800
@<TRIPOS>BOND
     1     1     2 1   
     2     1     3 1   
     3     1     4 1   
     4     3     5 1   
     5     3     8 1   
     6     3     9 1   
     7     5     6 1   
     8     5    10 1   
     9     5    11 1   
    10     6     7 2   
    11     6    12 1   
@<TRIPOS>SUBSTRUCTURE
     1 SSN         1 TEMP              0 ****  ****    0 ROOT
