@<TRIPOS>MOLECULE
SSP
   22    21     1     0     0
SMALL
No Charge or Current Charge


@<TRIPOS>ATOM
      1 S1           3.6310    -1.2930     3.0410 ss         1 SSP      -0.241000
      2 S2           4.5400    -1.0270     1.1750 ss         1 SSP      -0.241000
      3 CA1         -0.5250    -1.4350     3.6730 c3         1 SSP      -0.089100
      4 CB1          0.9930    -1.4470     3.9360 c3         1 SSP      -0.066900
      5 CG1          1.8260    -1.2700     2.6520 c3         1 SSP       0.056100
      6 CA2          5.4750     2.7100    -0.5150 c3         1 SSP      -0.089100
      7 CB2          5.3320     1.1870    -0.3270 c3         1 SSP      -0.066900
      8 CG2          4.6810     0.8070     1.0170 c3         1 SSP       0.056100
      9 HA11        -0.8080    -2.2480     2.9940 hc         1 SSP       0.035533
     10 HA12        -1.0770    -1.5630     4.6120 hc         1 SSP       0.035533
     11 HA13        -0.8330    -0.4840     3.2220 hc         1 SSP       0.035533
     12 HB11         1.2660    -2.3950     4.4160 hc         1 SSP       0.052700
     13 HB12         1.2420    -0.6450     4.6420 hc         1 SSP       0.052700
     14 HG11         1.6030    -2.0810     1.9460 h1         1 SSP       0.064200
     15 HG12         1.5770    -0.3140     2.1740 h1         1 SSP       0.064200
     16 HA21         6.1000     3.1420     0.2750 hc         1 SSP       0.035533
     17 HA22         5.9410     2.9330    -1.4820 hc         1 SSP       0.035533
     18 HA23         4.4930     3.1980    -0.4870 hc         1 SSP       0.035533
     19 HB21         6.3240     0.7230    -0.3920 hc         1 SSP       0.052700
     20 HB22         4.7310     0.7780    -1.1480 hc         1 SSP       0.052700
     21 HG21         5.2870     1.1900     1.8480 h1         1 SSP       0.064200
     22 HG22         3.6780     1.2480     1.0840 h1         1 SSP       0.064200
@<TRIPOS>BOND
     1     1     2 1   
     2     1     5 1   
     3     2     8 1   
     4     3     4 1   
     5     3     9 1   
     6     3    10 1   
     7     3    11 1   
     8     4     5 1   
     9     4    12 1   
    10     4    13 1   
    11     5    14 1   
    12     5    15 1   
    13     6     7 1   
    14     6    16 1   
    15     6    17 1   
    16     6    18 1   
    17     7     8 1   
    18     7    19 1   
    19     7    20 1   
    20     8    21 1   
    21     8    22 1   
@<TRIPOS>SUBSTRUCTURE
     1 SSP         1 TEMP              0 ****  ****    0 ROOT
