@<TRIPOS>MOLECULE
SSP
   22    21     1     0     0
SMALL
bcc


@<TRIPOS>ATOM
      1 S1           3.6630    -1.2870     3.0720 ss         1 SSP      -0.193100
      2 S2           4.5960    -1.0410     1.2640 ss         1 SSP      -0.193100
      3 CA1         -0.4310    -1.3460     3.5760 c3         1 SSP      -0.089100
      4 CB1          1.0590    -1.4340     3.8840 c3         1 SSP      -0.066900
      5 CG1          1.8950    -1.2020     2.6330 c3         1 SSP       0.008200
      6 CA2          5.3370     2.6280    -0.4730 c3         1 SSP      -0.089100
      7 CB2          5.2590     1.1190    -0.2730 c3         1 SSP      -0.066900
      8 CG2          4.6630     0.7730     1.0840 c3         1 SSP       0.008200
      9 HA11        -0.7240    -2.0770     2.8210 hc         1 SSP       0.035533
     10 HA12        -1.0240    -1.5360     4.4700 hc         1 SSP       0.035533
     11 HA13        -0.6980    -0.3560     3.2030 hc         1 SSP       0.035533
     12 HB11         1.2920    -2.4160     4.3030 hc         1 SSP       0.052700
     13 HB12         1.3200    -0.6950     4.6450 hc         1 SSP       0.052700
     14 HG11         1.6860    -1.9610     1.8780 h1         1 SSP       0.064200
     15 HG12         1.6820    -0.2210     2.2070 h1         1 SSP       0.064200
     16 HA21         5.9690     3.0950     0.2840 hc         1 SSP       0.035533
     17 HA22         5.7560     2.8680    -1.4500 hc         1 SSP       0.035533
     18 HA23         4.3490     3.0870    -0.4130 hc         1 SSP       0.035533
     19 HB21         6.2590     0.6860    -0.3600 hc         1 SSP       0.052700
     20 HB22         4.6530     0.6720    -1.0650 hc         1 SSP       0.052700
     21 HG21         5.2660     1.1860     1.8930 h1         1 SSP       0.064200
     22 HG22         3.6510     1.1700     1.1710 h1         1 SSP       0.064200
@<TRIPOS>BOND
     1     1     2 1   
     2     1     5 1   
     3     2     8 1   
     4     3     4 1   
     5     3     9 1   
     6     3    10 1   
     7     3    11 1   
     8     4     5 1   
     9     4    12 1   
    10     4    13 1   
    11     5    14 1   
    12     5    15 1   
    13     6     7 1   
    14     6    16 1   
    15     6    17 1   
    16     6    18 1   
    17     7     8 1   
    18     7    19 1   
    19     7    20 1   
    20     8    21 1   
    21     8    22 1   
@<TRIPOS>SUBSTRUCTURE
     1 SSP         1 TEMP              0 ****  ****    0 ROOT
