@<TRIPOS>MOLECULE
SSQ
   25    27     1     0     0
SMALL
bcc


@<TRIPOS>ATOM
      1 C02         30.1040    67.1510    71.5290 ca         1 SSQ       0.057400
      2 C03         30.9810    66.3200    72.2130 ca         1 SSQ      -0.128000
      3 C04         30.8260    66.1310    73.5760 ca         1 SSQ      -0.099000
      4 C05         29.8060    66.7790    74.2610 ca         1 SSQ      -0.131000
      5 C06         28.9480    67.6240    73.5790 ca         1 SSQ      -0.088000
      6 C07         29.0770    67.8070    72.2040 ca         1 SSQ      -0.027100
      7 C09         26.4240    68.2390    71.8130 cc         1 SSQ       0.410600
      8 C12         23.1590    69.3890    72.5160 c          1 SSQ       0.685300
      9 C16         23.9440    67.2870    72.3440 cd         1 SSQ      -0.033300
     10 C17         24.9740    66.3330    72.1120 cd         1 SSQ      -0.079000
     11 C18         26.2050    66.8110    71.8440 cc         1 SSQ      -0.185300
     12 N10         25.5050    69.1160    72.0250 nd         1 SSQ      -0.356800
     13 N11         24.2920    68.6170    72.2690 n          1 SSQ       0.025300
     14 N14         22.2290    68.4210    72.7160 ns         1 SSQ      -0.321900
     15 N15         22.6870    67.1480    72.6160 nc         1 SSQ      -0.176600
     16 O13         23.0680    70.5980    72.5380 o          1 SSQ      -0.584500
     17 S08         27.9870    68.9010    71.3420 ss         1 SSQ      -0.186200
     18 CL1         30.3080    67.3560    69.8280 cl         1 SSQ      -0.080400
     19 H1          31.7760    65.8180    71.6770 ha         1 SSQ       0.152000
     20 H2          31.5080    65.4770    74.1030 ha         1 SSQ       0.141000
     21 H3          29.6880    66.6390    75.3260 ha         1 SSQ       0.142000
     22 H4          28.1670    68.1480    74.1160 ha         1 SSQ       0.149000
     23 H5          24.7500    65.2760    72.1390 ha         1 SSQ       0.169000
     24 H6          27.0280    66.1420    71.6410 ha         1 SSQ       0.164000
     25 H7          21.2570    68.5880    72.9260 hn         1 SSQ       0.382500
@<TRIPOS>BOND
     1     1     2 ar  
     2     1     6 ar  
     3     1    18 1   
     4     2     3 ar  
     5     2    19 1   
     6     3     4 ar  
     7     3    20 1   
     8     4     5 ar  
     9     4    21 1   
    10     5     6 ar  
    11     5    22 1   
    12     6    17 1   
    13     7    11 1   
    14     7    12 2   
    15     7    17 1   
    16     8    13 1   
    17     8    14 1   
    18     8    16 2   
    19     9    10 1   
    20     9    13 1   
    21     9    15 2   
    22    10    11 2   
    23    10    23 1   
    24    11    24 1   
    25    12    13 1   
    26    14    15 1   
    27    14    25 1   
@<TRIPOS>SUBSTRUCTURE
     1 SSQ         1 TEMP              0 ****  ****    0 ROOT
