@<TRIPOS>MOLECULE
SSQ
   25    27     1     0     0
SMALL
No Charge or Current Charge


@<TRIPOS>ATOM
      1 C02         29.9710    66.9620    71.5920 ca         1 SSQ       0.149000
      2 C03         30.6750    66.1530    72.5000 ca         1 SSQ      -0.110000
      3 C04         30.4330    66.2640    73.8800 ca         1 SSQ      -0.081000
      4 C05         29.4860    67.1880    74.3520 ca         1 SSQ      -0.113000
      5 C06         28.7790    67.9990    73.4470 ca         1 SSQ      -0.070000
      6 C07         29.0120    67.8850    72.0610 ca         1 SSQ      -0.154000
      7 C09         26.5740    68.2360    71.4370 cc         1 SSQ       0.345300
      8 C12         23.4290    69.2000    73.0660 c          1 SSQ       0.542800
      9 C16         24.2050    67.2560    72.1910 cd         1 SSQ      -0.084000
     10 C17         25.0850    66.3370    71.5420 cd         1 SSQ      -0.061000
     11 C18         26.2920    66.8590    71.1560 cc         1 SSQ      -0.102000
     12 N10         25.7640    69.1200    72.0170 nd         1 SSQ      -0.356800
     13 N11         24.5210    68.5990    72.4230 n          1 SSQ       0.076000
     14 N14         22.5630    68.1480    73.1570 ns         1 SSQ      -0.368400
     15 N15         22.9950    66.9650    72.6420 nc         1 SSQ      -0.176600
     16 O13         23.2740    70.3530    73.4500 o          1 SSQ      -0.509000
     17 S08         28.1050    68.9270    70.9090 ss         1 SSQ      -0.059300
     18 Cl1         30.2920    66.7890    69.8680 cl         1 SSQ      -0.172000
     19 H1          31.4080    65.4390    72.1330 ha         1 SSQ       0.134000
     20 H2          30.9800    65.6370    74.5820 ha         1 SSQ       0.123000
     21 H3          29.3010    67.2780    75.4210 ha         1 SSQ       0.124000
     22 H4          28.0550    68.7170    73.8270 ha         1 SSQ       0.131000
     23 H5          24.8170    65.2990    71.3630 ha         1 SSQ       0.151000
     24 H6          27.0350    66.2530    70.6500 ha         1 SSQ       0.146000
     25 H7          21.6460    68.2530    73.5880 hn         1 SSQ       0.496000
@<TRIPOS>BOND
     1     1     2 ar  
     2     1     6 ar  
     3     1    18 1   
     4     2     3 ar  
     5     2    19 1   
     6     3     4 ar  
     7     3    20 1   
     8     4     5 ar  
     9     4    21 1   
    10     5     6 ar  
    11     5    22 1   
    12     6    17 1   
    13     7    11 1   
    14     7    12 2   
    15     7    17 1   
    16     8    13 1   
    17     8    14 1   
    18     8    16 2   
    19     9    10 1   
    20     9    13 1   
    21     9    15 2   
    22    10    11 2   
    23    10    23 1   
    24    11    24 1   
    25    12    13 1   
    26    14    15 1   
    27    14    25 1   
@<TRIPOS>SUBSTRUCTURE
     1 SSQ         1 TEMP              0 ****  ****    0 ROOT
