@<TRIPOS>MOLECULE
SSR
   62    66     1     0     0
SMALL
No Charge or Current Charge


@<TRIPOS>ATOM
      1 C1           3.8170     2.4030     0.9230 ca         1 SSR      -0.178000
      2 C2           3.5990     1.0460     0.6190 ca         1 SSR      -0.082000
      3 C3           2.3810     0.7000     0.0230 ca         1 SSR      -0.070200
      4 C4           1.4060     1.6260    -0.2540 ca         1 SSR      -0.035800
      5 C5           1.6320     3.0090    -0.0470 ca         1 SSR      -0.066300
      6 C6           2.8530     3.3780     0.5820 ca         1 SSR       0.109100
      7 N9           1.9560    -0.5360    -0.4250 na         1 SSR       0.001500
      8 C10          0.6740    -0.4870    -1.0010 cc         1 SSR       0.008700
      9 C11          0.3070     0.8500    -0.8440 cd         1 SSR      -0.208400
     10 C12          0.6790     4.0890    -0.5630 c3         1 SSR      -0.036800
     11 O16          3.1300     4.6890     0.8470 oh         1 SSR      -0.539100
     12 C17         -1.0900     1.3000    -1.1180 c          1 SSR       0.652300
     13 N18         -1.6950     2.1480    -0.1590 n          1 SSR      -0.398800
     14 C19         -3.0150     2.7910    -0.4120 c6         1 SSR       0.059000
     15 C20         -4.1450     2.1410     0.4340 c6         1 SSR       0.127800
     16 N21         -3.8070     2.1390     1.8830 n7         1 SSR      -0.843400
     17 C22         -2.5010     1.4730     2.1360 c6         1 SSR       0.127800
     18 C23         -1.3510     2.1010     1.2970 c6         1 SSR       0.059000
     19 O32         -1.7120     0.9240    -2.1040 o          1 SSR      -0.618100
     20 C35          2.7000    -1.7100    -0.3310 ca         1 SSR      -0.005200
     21 C36          2.8970    -2.3240     0.9200 ca         1 SSR      -0.107000
     22 C37          3.6470    -3.5090     1.0150 ca         1 SSR      -0.102000
     23 C38          4.2050    -4.0830    -0.1400 ca         1 SSR      -0.103000
     24 C39          4.0150    -3.4700    -1.3910 ca         1 SSR      -0.102000
     25 C40          3.2650    -2.2850    -1.4860 ca         1 SSR      -0.107000
     26 C46         -0.1470    -1.6810    -1.4440 c3         1 SSR       0.010100
     27 C47         -1.2970    -2.0110    -0.4800 ca         1 SSR      -0.056300
     28 C50         -2.6000    -2.3580    -0.9340 ca         1 SSR      -0.097300
     29 C51         -3.6100    -2.6260     0.0210 ca         1 SSR       0.168000
     30 C52         -3.3370    -2.5770     1.3950 ca         1 SSR      -0.145000
     31 C53         -2.0470    -2.2630     1.8410 ca         1 SSR      -0.094000
     32 C54         -1.0390    -1.9800     0.9090 ca         1 SSR      -0.123000
     33 C58         -2.9210    -2.4530    -2.4300 c3         1 SSR      -0.056800
     34 F62         -4.8660    -2.9410    -0.3720 f          1 SSR      -0.180000
     35 H1           4.7530     2.6960     1.3930 ha         1 SSR       0.112000
     36 H2           4.3560     0.2950     0.8350 ha         1 SSR       0.123000
     37 H12          0.0090     4.4460     0.2260 hc         1 SSR       0.047033
     38 H12A         1.2300     4.9590    -0.9380 hc         1 SSR       0.047033
     39 H12B         0.0750     3.7340    -1.4030 hc         1 SSR       0.047033
     40 HO16         4.0130     4.7410     1.2700 ho         1 SSR       0.459000
     41 H19         -2.9410     3.8580    -0.1580 h1         1 SSR       0.059450
     42 H19A        -3.2790     2.7360    -1.4770 h1         1 SSR       0.059450
     43 H20         -5.0880     2.6850     0.2690 h1         1 SSR       0.061950
     44 H20A        -4.2970     1.1060     0.0910 h1         1 SSR       0.061950
     45 HN21        -3.7380     3.1150     2.1990 hn         1 SSR       0.402000
     46 H22         -2.2500     1.5300     3.2060 h1         1 SSR       0.061950
     47 H22A        -2.5850     0.4070     1.8760 h1         1 SSR       0.061950
     48 H23         -0.4430     1.5150     1.4800 h1         1 SSR       0.059450
     49 H23A        -1.1620     3.1210     1.6570 h1         1 SSR       0.059450
     50 H36          2.4690    -1.8830     1.8180 ha         1 SSR       0.129500
     51 H37          3.7960    -3.9820     1.9840 ha         1 SSR       0.121000
     52 H38          4.7860    -5.0000    -0.0660 ha         1 SSR       0.119000
     53 H39          4.4490    -3.9120    -2.2850 ha         1 SSR       0.121000
     54 H40          3.1230    -1.8120    -2.4560 ha         1 SSR       0.129500
     55 H46         -0.5080    -1.4730    -2.4550 hc         1 SSR       0.077700
     56 H46A         0.4870    -2.5680    -1.5480 hc         1 SSR       0.077700
     57 H52         -4.1260    -2.7900     2.1120 ha         1 SSR       0.134000
     58 H53         -1.8300    -2.2310     2.9070 ha         1 SSR       0.117000
     59 H54         -0.0460    -1.7340     1.2760 ha         1 SSR       0.117000
     60 H58         -2.1830    -3.0720    -2.9540 hc         1 SSR       0.055033
     61 H58A        -3.9000    -2.9050    -2.6260 hc         1 SSR       0.055033
     62 H58B        -2.9240    -1.4610    -2.8960 hc         1 SSR       0.055033
@<TRIPOS>BOND
     1     1     2 ar  
     2     1     6 ar  
     3     1    35 1   
     4     2     3 ar  
     5     2    36 1   
     6     3     4 ar  
     7     3     7 1   
     8     4     5 ar  
     9     4     9 1   
    10     5     6 ar  
    11     5    10 1   
    12     6    11 1   
    13     7     8 1   
    14     7    20 1   
    15     8     9 2   
    16     8    26 1   
    17     9    12 1   
    18    10    37 1   
    19    10    38 1   
    20    10    39 1   
    21    11    40 1   
    22    12    13 1   
    23    12    19 2   
    24    13    14 1   
    25    13    18 1   
    26    14    15 1   
    27    14    41 1   
    28    14    42 1   
    29    15    16 1   
    30    15    43 1   
    31    15    44 1   
    32    16    17 1   
    33    16    45 1   
    34    17    18 1   
    35    17    46 1   
    36    17    47 1   
    37    18    48 1   
    38    18    49 1   
    39    20    21 ar  
    40    20    25 ar  
    41    21    22 ar  
    42    21    50 1   
    43    22    23 ar  
    44    22    51 1   
    45    23    24 ar  
    46    23    52 1   
    47    24    25 ar  
    48    24    53 1   
    49    25    54 1   
    50    26    27 1   
    51    26    55 1   
    52    26    56 1   
    53    27    28 ar  
    54    27    32 ar  
    55    28    29 ar  
    56    28    33 1   
    57    29    30 ar  
    58    29    34 1   
    59    30    31 ar  
    60    30    57 1   
    61    31    32 ar  
    62    31    58 1   
    63    32    59 1   
    64    33    60 1   
    65    33    61 1   
    66    33    62 1   
@<TRIPOS>SUBSTRUCTURE
     1 SSR         1 TEMP              0 ****  ****    0 ROOT
