@<TRIPOS>MOLECULE
SSR
   62    66     1     0     0
SMALL
bcc


@<TRIPOS>ATOM
      1 C1           3.9410     2.3490     0.8400 ca         1 SSR      -0.196000
      2 C2           3.7010     1.0180     0.5700 ca         1 SSR      -0.100000
      3 C3           2.4580     0.6870     0.0490 ca         1 SSR      -0.070200
      4 C4           1.4760     1.6590    -0.2190 ca         1 SSR      -0.035800
      5 C5           1.7400     3.0220     0.0130 ca         1 SSR      -0.066300
      6 C6           2.9760     3.3340     0.5680 ca         1 SSR       0.109100
      7 N9           1.9600    -0.5430    -0.3270 na         1 SSR       0.001500
      8 C10          0.6920    -0.3780    -0.8250 cc         1 SSR       0.008700
      9 C11          0.3530     0.9490    -0.7590 cd         1 SSR      -0.208400
     10 C12          0.7580     4.0950    -0.3530 c3         1 SSR      -0.036800
     11 O16          3.2350     4.6400     0.8340 oh         1 SSR      -0.500100
     12 C17         -0.9580     1.4610    -1.2360 c          1 SSR       0.719300
     13 N18         -1.7960     1.9840    -0.3210 n          1 SSR      -0.465800
     14 C19         -3.0880     2.5210    -0.7150 c6         1 SSR       0.059000
     15 C20         -4.2070     1.7500    -0.0230 c6         1 SSR       0.127800
     16 N21         -4.0610     1.6990     1.4210 n7         1 SSR      -0.788200
     17 C22         -2.7430     1.2180     1.7960 c6         1 SSR       0.127800
     18 C23         -1.5960     1.9630     1.1170 c6         1 SSR       0.059000
     19 O32         -1.2440     1.3880    -2.4300 o          1 SSR      -0.618100
     20 C35          2.7020    -1.7480    -0.2820 ca         1 SSR      -0.005200
     21 C36          3.0610    -2.2910     0.9460 ca         1 SSR      -0.125000
     22 C37          3.8000    -3.4650     0.9870 ca         1 SSR      -0.120000
     23 C38          4.1700    -4.1000    -0.1910 ca         1 SSR      -0.121000
     24 C39          3.8060    -3.5540    -1.4150 ca         1 SSR      -0.120000
     25 C40          3.0820    -2.3720    -1.4640 ca         1 SSR      -0.125000
     26 C46         -0.1660    -1.5220    -1.2620 c3         1 SSR       0.010100
     27 C47         -1.2440    -1.8650    -0.2550 ca         1 SSR      -0.056300
     28 C50         -2.5870    -1.9760    -0.6360 ca         1 SSR      -0.097300
     29 C51         -3.4930    -2.3340     0.3560 ca         1 SSR       0.132900
     30 C52         -3.1420    -2.5880     1.6660 ca         1 SSR      -0.163000
     31 C53         -1.8060    -2.4740     2.0190 ca         1 SSR      -0.112000
     32 C54         -0.8710    -2.1120     1.0650 ca         1 SSR      -0.141000
     33 C58         -3.0480    -1.7340    -2.0470 c3         1 SSR      -0.056800
     34 F62         -4.7960    -2.4440     0.0320 f          1 SSR      -0.144900
     35 H1           4.8970     2.6420     1.2590 ha         1 SSR       0.130000
     36 H2           4.4600     0.2710     0.7630 ha         1 SSR       0.141000
     37 H12         -0.0150     4.2240     0.4070 hc         1 SSR       0.047033
     38 H12A         1.2440     5.0590    -0.4810 hc         1 SSR       0.047033
     39 H12B         0.2530     3.8630    -1.2910 hc         1 SSR       0.047033
     40 HO16         4.1370     4.7380     1.1560 ho         1 SSR       0.420000
     41 H19         -3.1310     3.5770    -0.4230 h1         1 SSR       0.059450
     42 H19A        -3.1920     2.4720    -1.7960 h1         1 SSR       0.059450
     43 H20         -5.1690     2.2010    -0.2720 h1         1 SSR       0.061950
     44 H20A        -4.2240     0.7240    -0.4060 h1         1 SSR       0.061950
     45 HN21        -4.2020     2.6290     1.8000 hn         1 SSR       0.346800
     46 H22         -2.6270     1.2920     2.8790 h1         1 SSR       0.061950
     47 H22A        -2.6750     0.1590     1.5380 h1         1 SSR       0.061950
     48 H23         -0.6470     1.4920     1.3620 h1         1 SSR       0.059450
     49 H23A        -1.5570     2.9950     1.4840 h1         1 SSR       0.059450
     50 H36          2.7610    -1.8010     1.8630 ha         1 SSR       0.147500
     51 H37          4.0780    -3.8870     1.9440 ha         1 SSR       0.139000
     52 H38          4.7400    -5.0190    -0.1550 ha         1 SSR       0.137000
     53 H39          4.0920    -4.0440    -2.3370 ha         1 SSR       0.139000
     54 H40          2.8140    -1.9340    -2.4170 ha         1 SSR       0.147500
     55 H46         -0.5990    -1.2730    -2.2280 hc         1 SSR       0.077700
     56 H46A         0.4460    -2.4110    -1.4310 hc         1 SSR       0.077700
     57 H52         -3.8970    -2.8650     2.3900 ha         1 SSR       0.152000
     58 H53         -1.4990    -2.6670     3.0380 ha         1 SSR       0.135000
     59 H54          0.1700    -2.0270     1.3520 ha         1 SSR       0.135000
     60 H58         -2.5750    -2.4290    -2.7420 hc         1 SSR       0.055033
     61 H58A        -4.1220    -1.8560    -2.1520 hc         1 SSR       0.055033
     62 H58B        -2.8010    -0.7250    -2.3780 hc         1 SSR       0.055033
@<TRIPOS>BOND
     1     1     2 ar  
     2     1     6 ar  
     3     1    35 1   
     4     2     3 ar  
     5     2    36 1   
     6     3     4 ar  
     7     3     7 1   
     8     4     5 ar  
     9     4     9 1   
    10     5     6 ar  
    11     5    10 1   
    12     6    11 1   
    13     7     8 1   
    14     7    20 1   
    15     8     9 2   
    16     8    26 1   
    17     9    12 1   
    18    10    37 1   
    19    10    38 1   
    20    10    39 1   
    21    11    40 1   
    22    12    13 1   
    23    12    19 2   
    24    13    14 1   
    25    13    18 1   
    26    14    15 1   
    27    14    41 1   
    28    14    42 1   
    29    15    16 1   
    30    15    43 1   
    31    15    44 1   
    32    16    17 1   
    33    16    45 1   
    34    17    18 1   
    35    17    46 1   
    36    17    47 1   
    37    18    48 1   
    38    18    49 1   
    39    20    21 ar  
    40    20    25 ar  
    41    21    22 ar  
    42    21    50 1   
    43    22    23 ar  
    44    22    51 1   
    45    23    24 ar  
    46    23    52 1   
    47    24    25 ar  
    48    24    53 1   
    49    25    54 1   
    50    26    27 1   
    51    26    55 1   
    52    26    56 1   
    53    27    28 ar  
    54    27    32 ar  
    55    28    29 ar  
    56    28    33 1   
    57    29    30 ar  
    58    29    34 1   
    59    30    31 ar  
    60    30    57 1   
    61    31    32 ar  
    62    31    58 1   
    63    32    59 1   
    64    33    60 1   
    65    33    61 1   
    66    33    62 1   
@<TRIPOS>SUBSTRUCTURE
     1 SSR         1 TEMP              0 ****  ****    0 ROOT
