@<TRIPOS>MOLECULE
SST
   22    21     1     0     0
SMALL
No Charge or Current Charge


@<TRIPOS>ATOM
      1 O3           0.0370    -1.8330    -0.3010 oh         1 SST      -0.720000
      2 O4           1.2980     1.5000     0.7770 oh         1 SST      -0.693500
      3 O2          -1.4060     0.1220    -1.5240 oh         1 SST      -0.693500
      4 C3           0.0000    -0.5590     0.3690 c3         1 SST       0.102300
      5 C4           1.3010     0.2510     0.0650 c3         1 SST       0.141800
      6 C2          -1.2960     0.1790    -0.0860 c3         1 SST       0.141800
      7 C5           2.5990    -0.4970     0.4740 c3         1 SST       0.128600
      8 C1          -2.5920    -0.4230     0.5190 c3         1 SST       0.128600
      9 H1          -0.4210    -1.6570    -1.1600 ho         1 SST       0.507000
     10 H3          -2.3630     0.3090    -1.6920 ho         1 SST       0.496000
     11 H4           4.5370    -0.1330     0.5540 ho         1 SST       0.503500
     12 H5          -4.5390    -0.1340     0.4010 ho         1 SST       0.503500
     13 H6          -0.0510    -0.7070     1.4570 h1         1 SST       0.068700
     14 H7           1.3480     0.4340    -1.0190 h1         1 SST       0.099200
     15 H8          -1.2380     1.2240     0.2530 h1         1 SST       0.099200
     16 H9           2.7450    -1.3610    -0.1880 h1         1 SST       0.025950
     17 H10          2.4960    -0.8750     1.5010 h1         1 SST       0.025950
     18 H11         -2.5780    -0.2810     1.6080 h1         1 SST       0.025950
     19 H12         -2.6270    -1.5030     0.3230 h1         1 SST       0.025950
     20 H2           2.2620     1.6970     0.8770 ho         1 SST       0.496000
     21 O5           3.7240     0.4010     0.3840 oh         1 SST      -0.707500
     22 O1          -3.7420     0.2250    -0.0580 oh         1 SST      -0.707500
@<TRIPOS>BOND
     1     1     4 1   
     2     1     9 1   
     3     2     5 1   
     4     2    20 1   
     5     3     6 1   
     6     3    10 1   
     7     4     5 1   
     8     4     6 1   
     9     4    13 1   
    10     5     7 1   
    11     5    14 1   
    12     6     8 1   
    13     6    15 1   
    14     7    16 1   
    15     7    17 1   
    16     7    21 1   
    17     8    18 1   
    18     8    19 1   
    19     8    22 1   
    20    11    21 1   
    21    12    22 1   
@<TRIPOS>SUBSTRUCTURE
     1 SST         1 TEMP              0 ****  ****    0 ROOT
