@<TRIPOS>MOLECULE
SST
   22    21     1     0     0
SMALL
abcg2


@<TRIPOS>ATOM
      1 O3          -0.0360    -1.7780    -0.2210 oh         1 SST      -0.720000
      2 O4           1.2770     1.5710     0.5170 oh         1 SST      -0.693500
      3 O2          -1.3880     0.4700    -1.4410 oh         1 SST      -0.693500
      4 C3          -0.0210    -0.4800     0.3360 c3         1 SST       0.102300
      5 C4           1.2720     0.2710    -0.0280 c3         1 SST       0.141800
      6 C2          -1.2820     0.3070    -0.0420 c3         1 SST       0.141800
      7 C5           2.5010    -0.5180     0.3960 c3         1 SST       0.128600
      8 C1          -2.5170    -0.3390     0.5620 c3         1 SST       0.128600
      9 H1           0.1100    -1.7060    -1.1710 ho         1 SST       0.507000
     10 H3          -1.7740    -0.3250    -1.8230 ho         1 SST       0.496000
     11 H4           4.4170    -0.3710     0.1770 ho         1 SST       0.503500
     12 H5          -4.4210     0.0050     0.5990 ho         1 SST       0.503500
     13 H6          -0.0320    -0.6240     1.4240 h1         1 SST       0.068700
     14 H7           1.3020     0.4070    -1.1160 h1         1 SST       0.099200
     15 H8          -1.1880     1.3130     0.3760 h1         1 SST       0.099200
     16 H9           2.4530    -1.5230    -0.0340 h1         1 SST       0.025950
     17 H10          2.4850    -0.6410     1.4900 h1         1 SST       0.025950
     18 H11         -2.3550    -0.4460     1.6430 h1         1 SST       0.025950
     19 H12         -2.6410    -1.3530     0.1590 h1         1 SST       0.025950
     20 H2           1.3190     1.5000     1.4770 ho         1 SST       0.496000
     21 O5           3.6520     0.1730    -0.0290 oh         1 SST      -0.707500
     22 O1          -3.6390     0.4660     0.2830 oh         1 SST      -0.707500
@<TRIPOS>BOND
     1     1     4 1   
     2     1     9 1   
     3     2     5 1   
     4     2    20 1   
     5     3     6 1   
     6     3    10 1   
     7     4     5 1   
     8     4     6 1   
     9     4    13 1   
    10     5     7 1   
    11     5    14 1   
    12     6     8 1   
    13     6    15 1   
    14     7    16 1   
    15     7    17 1   
    16     7    21 1   
    17     8    18 1   
    18     8    19 1   
    19     8    22 1   
    20    11    21 1   
    21    12    22 1   
@<TRIPOS>SUBSTRUCTURE
     1 SST         1 TEMP              0 ****  ****    0 ROOT
