@<TRIPOS>MOLECULE
SSV
   34    33     1     0     0
SMALL
No Charge or Current Charge


@<TRIPOS>ATOM
      1 CAB          8.2480    -0.7650    -0.0130 c3         1 SSV      -0.195100
      2 CAP          7.0540     0.1840    -0.0070 c          1 SSV       0.571300
      3 OAC          7.2060     1.3990     0.0020 o          1 SSV      -0.534100
      4 CAO          5.7010    -0.4420    -0.0110 ce         1 SSV      -0.321200
      5 CAN          4.5210     0.2410    -0.0070 cf         1 SSV      -0.094000
      6 CAM          3.2110    -0.3930    -0.0120 cf         1 SSV      -0.205000
      7 CAL          2.0270     0.2770    -0.0070 ce         1 SSV      -0.139000
      8 CAK          0.7110    -0.3690    -0.0120 ce         1 SSV      -0.192000
      9 CAJ         -0.4740     0.2960    -0.0080 cf         1 SSV      -0.152000
     10 CAI         -1.7800    -0.3480    -0.0130 cf         1 SSV      -0.188000
     11 CAH         -2.9670     0.3150    -0.0080 ce         1 SSV      -0.156000
     12 CAG         -4.2800    -0.3370    -0.0130 ce         1 SSV      -0.188000
     13 CAF         -5.4680     0.3240    -0.0090 cf         1 SSV      -0.157000
     14 CAE         -6.7710    -0.3250    -0.0140 cf         1 SSV      -0.199000
     15 CAD         -7.9440     0.3440    -0.0090 c2         1 SSV      -0.193200
     16 CAA         -9.3140    -0.2990    -0.0140 c3         1 SSV      -0.060900
     17 HAB1         8.1580    -1.4530     0.8350 hc         1 SSV       0.059367
     18 HAB2         8.1590    -1.4410    -0.8700 hc         1 SSV       0.059367
     19 HAB3         9.2090    -0.2380    -0.0090 hc         1 SSV       0.059367
     20 HAO          5.6850    -1.5310    -0.0190 ha         1 SSV       0.180000
     21 HAN          4.5460     1.3360     0.0010 ha         1 SSV       0.190000
     22 HAM          3.1900    -1.4850    -0.0190 ha         1 SSV       0.177000
     23 HAL          2.0410     1.3700     0.0000 ha         1 SSV       0.175000
     24 HAK          0.6990    -1.4620    -0.0200 ha         1 SSV       0.175000
     25 HAJ         -0.4580     1.3890    -0.0000 ha         1 SSV       0.172000
     26 HAI         -1.7950    -1.4400    -0.0200 ha         1 SSV       0.174000
     27 HAH         -2.9580     1.4080    -0.0010 ha         1 SSV       0.171000
     28 HAG         -4.2890    -1.4290    -0.0210 ha         1 SSV       0.173000
     29 HAF         -5.4560     1.4170    -0.0010 ha         1 SSV       0.170000
     30 HAE         -6.7830    -1.4190    -0.0210 ha         1 SSV       0.172000
     31 HAD         -7.9500     1.4360    -0.0010 ha         1 SSV       0.167000
     32 HAA1        -9.4540    -0.9360     0.8680 hc         1 SSV       0.043033
     33 HAA2       -10.1070     0.4590    -0.0080 hc         1 SSV       0.043033
     34 HAA3        -9.4540    -0.9220    -0.9050 hc         1 SSV       0.043033
@<TRIPOS>BOND
     1     1     2 1   
     2     1    17 1   
     3     1    18 1   
     4     1    19 1   
     5     2     3 2   
     6     2     4 1   
     7     4     5 2   
     8     4    20 1   
     9     5     6 1   
    10     5    21 1   
    11     6     7 2   
    12     6    22 1   
    13     7     8 1   
    14     7    23 1   
    15     8     9 2   
    16     8    24 1   
    17     9    10 1   
    18     9    25 1   
    19    10    11 2   
    20    10    26 1   
    21    11    12 1   
    22    11    27 1   
    23    12    13 2   
    24    12    28 1   
    25    13    14 1   
    26    13    29 1   
    27    14    15 2   
    28    14    30 1   
    29    15    16 1   
    30    15    31 1   
    31    16    32 1   
    32    16    33 1   
    33    16    34 1   
@<TRIPOS>SUBSTRUCTURE
     1 SSV         1 TEMP              0 ****  ****    0 ROOT
