@<TRIPOS>MOLECULE
SSV
   34    33     1     0     0
SMALL
abcg2


@<TRIPOS>ATOM
      1 CAB          8.1160    -0.6160    -0.0940 c3         1 SSV      -0.195100
      2 CAP          6.8890     0.2520    -0.1120 c          1 SSV       0.571300
      3 OAC          6.9580     1.4610    -0.2520 o          1 SSV      -0.534100
      4 CAO          5.6110    -0.4590     0.0270 ce         1 SSV      -0.321200
      5 CAN          4.4200     0.1710    -0.0070 cf         1 SSV      -0.094000
      6 CAM          3.1570    -0.5000     0.1030 cf         1 SSV      -0.205000
      7 CAL          1.9760     0.1560     0.0490 ce         1 SSV      -0.139000
      8 CAK          0.6990    -0.4870     0.1340 ce         1 SSV      -0.192000
      9 CAJ         -0.4730     0.1830     0.0590 cf         1 SSV      -0.152000
     10 CAI         -1.7590    -0.4440     0.1240 cf         1 SSV      -0.188000
     11 CAH         -2.9230     0.2380     0.0280 ce         1 SSV      -0.156000
     12 CAG         -4.2190    -0.3760     0.0760 ce         1 SSV      -0.188000
     13 CAF         -5.3720     0.3140    -0.0400 cf         1 SSV      -0.157000
     14 CAE         -6.6820    -0.2900     0.0000 cf         1 SSV      -0.199000
     15 CAD         -7.8210     0.4030    -0.1390 c2         1 SSV      -0.193200
     16 CAA         -9.1860    -0.1900    -0.1100 c3         1 SSV      -0.060900
     17 HAB1         8.0900    -1.3100     0.7470 hc         1 SSV       0.059367
     18 HAB2         8.1410    -1.2260    -1.0020 hc         1 SSV       0.059367
     19 HAB3         9.0270    -0.0230    -0.0480 hc         1 SSV       0.059367
     20 HAO          5.6500    -1.5360     0.1490 ha         1 SSV       0.180000
     21 HAN          4.3970     1.2500    -0.1300 ha         1 SSV       0.190000
     22 HAM          3.1650    -1.5790     0.2230 ha         1 SSV       0.177000
     23 HAL          1.9800     1.2360    -0.0720 ha         1 SSV       0.175000
     24 HAK          0.6870    -1.5670     0.2530 ha         1 SSV       0.175000
     25 HAJ         -0.4520     1.2640    -0.0650 ha         1 SSV       0.172000
     26 HAI         -1.7860    -1.5230     0.2480 ha         1 SSV       0.174000
     27 HAH         -2.8890     1.3170    -0.0970 ha         1 SSV       0.171000
     28 HAG         -4.2570    -1.4540     0.2100 ha         1 SSV       0.173000
     29 HAF         -5.3290     1.3920    -0.1730 ha         1 SSV       0.170000
     30 HAE         -6.7290    -1.3660     0.1490 ha         1 SSV       0.172000
     31 HAD         -7.7600     1.4780    -0.2890 ha         1 SSV       0.167000
     32 HAA1        -9.1620    -1.2570     0.1100 hc         1 SSV       0.043033
     33 HAA2        -9.8110     0.3010     0.6390 hc         1 SSV       0.043033
     34 HAA3        -9.6920    -0.0510    -1.0690 hc         1 SSV       0.043033
@<TRIPOS>BOND
     1     1     2 1   
     2     1    17 1   
     3     1    18 1   
     4     1    19 1   
     5     2     3 2   
     6     2     4 1   
     7     4     5 2   
     8     4    20 1   
     9     5     6 1   
    10     5    21 1   
    11     6     7 2   
    12     6    22 1   
    13     7     8 1   
    14     7    23 1   
    15     8     9 2   
    16     8    24 1   
    17     9    10 1   
    18     9    25 1   
    19    10    11 2   
    20    10    26 1   
    21    11    12 1   
    22    11    27 1   
    23    12    13 2   
    24    12    28 1   
    25    13    14 1   
    26    13    29 1   
    27    14    15 2   
    28    14    30 1   
    29    15    16 1   
    30    15    31 1   
    31    16    32 1   
    32    16    33 1   
    33    16    34 1   
@<TRIPOS>SUBSTRUCTURE
     1 SSV         1 TEMP              0 ****  ****    0 ROOT
