@<TRIPOS>MOLECULE
SSW
   29    31     1     0     0
SMALL
No Charge or Current Charge


@<TRIPOS>ATOM
      1 C02         31.1310    64.7940    70.4120 c3         1 SSW       0.515000
      2 C06         30.0530    66.2840    72.1010 ca         1 SSW       0.093100
      3 C07         30.0030    66.6610    73.4540 ca         1 SSW      -0.088000
      4 C08         29.1130    67.6590    73.8850 ca         1 SSW      -0.100000
      5 C09         28.2590    68.2860    72.9630 ca         1 SSW      -0.078000
      6 C10         28.2890    67.9080    71.6060 ca         1 SSW      -0.135000
      7 C11         29.1920    66.9170    71.1740 ca         1 SSW      -0.070000
      8 C13         25.7820    68.3040    71.3520 cc         1 SSW       0.341300
      9 C16         23.0030    69.9430    73.1010 c          1 SSW       0.543800
     10 C20         23.5560    67.7740    72.7330 cd         1 SSW      -0.085000
     11 C21         24.2800    66.6390    72.2540 cd         1 SSW      -0.059000
     12 C22         25.4150    66.9310    71.5420 cc         1 SSW      -0.104000
     13 F01         29.9970    64.2370    69.9280 f          1 SSW      -0.107667
     14 F03         32.0830    63.8350    70.3820 f          1 SSW      -0.107667
     15 F04         31.5210    65.7610    69.5510 f          1 SSW      -0.107667
     16 N14         25.1120    69.3780    71.7640 nd         1 SSW      -0.343800
     17 N15         23.9470    69.0970    72.5000 n          1 SSW       0.073000
     18 N18         22.1370    69.0350    73.6390 ns         1 SSW      -0.368400
     19 N19         22.4370    67.7230    73.4370 nc         1 SSW      -0.171600
     20 O05         30.9600    65.2970    71.7530 os         1 SSW      -0.401100
     21 O17         22.9520    71.1660    73.1420 o          1 SSW      -0.506000
     22 S12         27.2130    68.6910    70.4000 ss         1 SSW      -0.077300
     23 H1          30.6630    66.1790    74.1710 ha         1 SSW       0.140000
     24 H2          29.0870    67.9490    74.9330 ha         1 SSW       0.128000
     25 H3          27.5830    69.0660    73.3060 ha         1 SSW       0.132000
     26 H4          29.2030    66.6540    70.1210 ha         1 SSW       0.147000
     27 H5          23.9560    65.6190    72.4380 ha         1 SSW       0.153000
     28 H6          26.0390    66.1480    71.1270 ha         1 SSW       0.146000
     29 H7          21.3140    69.3330    74.1600 hn         1 SSW       0.497000
@<TRIPOS>BOND
     1     1    13 1   
     2     1    14 1   
     3     1    15 1   
     4     1    20 1   
     5     2     3 ar  
     6     2     7 ar  
     7     2    20 1   
     8     3     4 ar  
     9     3    23 1   
    10     4     5 ar  
    11     4    24 1   
    12     5     6 ar  
    13     5    25 1   
    14     6     7 ar  
    15     6    22 1   
    16     7    26 1   
    17     8    12 1   
    18     8    16 2   
    19     8    22 1   
    20     9    17 1   
    21     9    18 1   
    22     9    21 2   
    23    10    11 1   
    24    10    17 1   
    25    10    19 2   
    26    11    12 2   
    27    11    27 1   
    28    12    28 1   
    29    16    17 1   
    30    18    19 1   
    31    18    29 1   
@<TRIPOS>SUBSTRUCTURE
     1 SSW         1 TEMP              0 ****  ****    0 ROOT
