@<TRIPOS>MOLECULE
SSW
   29    31     1     0     0
SMALL
abcg2


@<TRIPOS>ATOM
      1 C02         31.2520    64.7130    70.6200 c3         1 SSW       0.515000
      2 C06         30.3250    66.5450    71.7470 ca         1 SSW       0.093100
      3 C07         30.2700    66.4090    73.1230 ca         1 SSW      -0.088000
      4 C08         29.2460    67.0420    73.8140 ca         1 SSW      -0.100000
      5 C09         28.3070    67.8090    73.1430 ca         1 SSW      -0.078000
      6 C10         28.3750    67.9200    71.7570 ca         1 SSW      -0.135000
      7 C11         29.3850    67.2820    71.0460 ca         1 SSW      -0.070000
      8 C13         25.7200    68.5160    71.6350 cc         1 SSW       0.341300
      9 C16         22.8020    70.0930    72.8470 c          1 SSW       0.543800
     10 C20         23.2940    67.9040    72.6730 cd         1 SSW      -0.085000
     11 C21         24.1470    66.8190    72.3230 cd         1 SSW      -0.059000
     12 C22         25.3510    67.1290    71.8050 cc         1 SSW      -0.104000
     13 F01         30.9900    63.8510    71.6030 f          1 SSW      -0.107667
     14 F03         32.3970    64.3650    70.0560 f          1 SSW      -0.107667
     15 F04         30.2770    64.5780    69.7190 f          1 SSW      -0.107667
     16 N14         24.9630    69.5090    71.9490 nd         1 SSW      -0.343800
     17 N15         23.7700    69.1750    72.4430 n          1 SSW       0.073000
     18 N18         21.8240    69.2580    73.2810 ns         1 SSW      -0.368400
     19 N19         22.1070    67.9350    73.1830 nc         1 SSW      -0.171600
     20 O05         31.3830    65.9740    71.0530 os         1 SSW      -0.401100
     21 O17         22.8560    71.3040    72.8070 o          1 SSW      -0.506000
     22 S12         27.2430    68.9450    70.8590 ss         1 SSW      -0.077300
     23 H1          31.0210    65.8370    73.6510 ha         1 SSW       0.140000
     24 H2          29.1930    66.9510    74.8900 ha         1 SSW       0.128000
     25 H3          27.5370    68.3250    73.7010 ha         1 SSW       0.132000
     26 H4          29.4460    67.3700    69.9690 ha         1 SSW       0.147000
     27 H5          23.8140    65.8010    72.4650 ha         1 SSW       0.153000
     28 H6          26.0460    66.3580    71.5040 ha         1 SSW       0.146000
     29 H7          20.9380    69.5520    73.6620 hn         1 SSW       0.497000
@<TRIPOS>BOND
     1     1    13 1   
     2     1    14 1   
     3     1    15 1   
     4     1    20 1   
     5     2     3 ar  
     6     2     7 ar  
     7     2    20 1   
     8     3     4 ar  
     9     3    23 1   
    10     4     5 ar  
    11     4    24 1   
    12     5     6 ar  
    13     5    25 1   
    14     6     7 ar  
    15     6    22 1   
    16     7    26 1   
    17     8    12 1   
    18     8    16 2   
    19     8    22 1   
    20     9    17 1   
    21     9    18 1   
    22     9    21 2   
    23    10    11 1   
    24    10    17 1   
    25    10    19 2   
    26    11    12 2   
    27    11    27 1   
    28    12    28 1   
    29    16    17 1   
    30    18    19 1   
    31    18    29 1   
@<TRIPOS>SUBSTRUCTURE
     1 SSW         1 TEMP              0 ****  ****    0 ROOT
