@<TRIPOS>MOLECULE
SSX
   38    39     1     0     0
SMALL
abcg2


@<TRIPOS>ATOM
      1 C19         17.8480    22.3390    -7.0740 ca         1 SSX      -0.186000
      2 C01         20.4070    23.5640    -7.2630 c3         1 SSX       0.150900
      3 C03         19.0340    21.6510    -6.8600 ca         1 SSX       0.160100
      4 C04         18.9510    20.2950    -6.5240 ca         1 SSX      -0.208000
      5 C05         17.7100    19.6350    -6.4030 ca         1 SSX      -0.041800
      6 C06         17.8970    18.2600    -6.0400 cc         1 SSX      -0.162200
      7 C07         19.2040    17.9100    -5.8980 cd         1 SSX      -0.136000
      8 C08         19.7740    16.6070    -5.5180 cf         1 SSX       0.691500
      9 C12         16.5050    20.3380    -6.6250 ca         1 SSX      -0.070300
     10 C13         15.1540    19.6850    -6.4910 c3         1 SSX      -0.019100
     11 C14         14.5080    19.8350    -5.0970 c3         1 SSX      -0.053700
     12 C15         15.2620    19.0790    -3.9980 c3         1 SSX       0.152800
     13 C17         13.0340    19.4280    -5.1460 c3         1 SSX      -0.090100
     14 C18         16.6150    21.6780    -6.9580 ca         1 SSX      -0.084000
     15 N09         18.8770    15.5850    -5.3560 nv         1 SSX      -1.081200
     16 N10         21.0450    16.5280    -5.3220 n2         1 SSX      -0.839100
     17 N16         15.2200    17.6210    -4.1850 n8         1 SSX      -1.016200
     18 O02         20.2840    22.1770    -6.9470 os         1 SSX      -0.346100
     19 S11         20.2970    19.2430    -6.2000 ss         1 SSX       0.184400
     20 H191        17.8620    23.3860    -7.3400 ha         1 SSX       0.116000
     21 H012        21.4730    23.7750    -7.2680 h1         1 SSX       0.043367
     22 H011        19.9830    23.7800    -8.2460 h1         1 SSX       0.043367
     23 H013        19.9130    24.1810    -6.5080 h1         1 SSX       0.043367
     24 H061        17.0680    17.5930    -5.8530 ha         1 SSX       0.222000
     25 H132        14.4790    20.1390    -7.2210 hc         1 SSX       0.051700
     26 H131        15.2170    18.6230    -6.7370 hc         1 SSX       0.051700
     27 H141        14.5580    20.8960    -4.8290 hc         1 SSX       0.045700
     28 H151        16.3100    19.3840    -4.0040 h1         1 SSX       0.034700
     29 H152        14.8490    19.3860    -3.0280 h1         1 SSX       0.034700
     30 H173        12.5680    19.5230    -4.1620 hc         1 SSX       0.033700
     31 H172        12.4820    20.0590    -5.8460 hc         1 SSX       0.033700
     32 H171        12.9200    18.3920    -5.4750 hc         1 SSX       0.033700
     33 H181        15.7110    22.2470    -7.1430 ha         1 SSX       0.109000
     34 H092        17.9800    15.6440    -5.8100 hn         1 SSX       0.468000
     35 H101        21.3210    15.5770    -5.0790 hn         1 SSX       0.373400
     36 H162        15.8730    17.1770    -3.5500 hn         1 SSX       0.395000
     37 H161        14.3020    17.2630    -3.9420 hn         1 SSX       0.395000
     38 H091        19.2500    14.6520    -5.2710 hn         1 SSX       0.468000
@<TRIPOS>BOND
     1     1     3 ar  
     2     1    14 ar  
     3     1    20 1   
     4     2    18 1   
     5     2    21 1   
     6     2    22 1   
     7     2    23 1   
     8     3     4 ar  
     9     3    18 1   
    10     4     5 ar  
    11     4    19 1   
    12     5     6 1   
    13     5     9 ar  
    14     6     7 2   
    15     6    24 1   
    16     7     8 1   
    17     7    19 1   
    18     8    15 1   
    19     8    16 2   
    20     9    10 1   
    21     9    14 ar  
    22    10    11 1   
    23    10    25 1   
    24    10    26 1   
    25    11    12 1   
    26    11    13 1   
    27    11    27 1   
    28    12    17 1   
    29    12    28 1   
    30    12    29 1   
    31    13    30 1   
    32    13    31 1   
    33    13    32 1   
    34    14    33 1   
    35    15    34 1   
    36    15    38 1   
    37    16    35 1   
    38    17    36 1   
    39    17    37 1   
@<TRIPOS>SUBSTRUCTURE
     1 SSX         1 TEMP              0 ****  ****    0 ROOT
