@<TRIPOS>MOLECULE
SSX
   38    39     1     0     0
SMALL
No Charge or Current Charge


@<TRIPOS>ATOM
      1 C19         17.8210    22.3280    -7.0330 ca         1 SSX      -0.186000
      2 C01         20.4090    23.6400    -7.2720 c3         1 SSX       0.150900
      3 C03         19.0370    21.6350    -6.8430 ca         1 SSX       0.160100
      4 C04         18.9830    20.2690    -6.5290 ca         1 SSX      -0.208000
      5 C05         17.7800    19.5980    -6.4020 ca         1 SSX      -0.041800
      6 C06         17.9660    18.2020    -6.0630 cc         1 SSX      -0.162200
      7 C07         19.3110    17.8500    -5.9670 cd         1 SSX      -0.136000
      8 C08         19.8600    16.5350    -5.6150 cf         1 SSX       0.691500
      9 C12         16.5530    20.2730    -6.5920 ca         1 SSX      -0.070300
     10 C13         15.1970    19.5740    -6.4800 c3         1 SSX      -0.019100
     11 C14         14.4800    19.8380    -5.1270 c3         1 SSX      -0.053700
     12 C15         15.2060    19.2020    -3.9080 c3         1 SSX       0.152800
     13 C17         12.9820    19.4490    -5.1870 c3         1 SSX      -0.090100
     14 C18         16.5920    21.6480    -6.9080 ca         1 SSX      -0.084000
     15 N09         19.0490    15.4860    -5.6940 nv         1 SSX      -1.081200
     16 N10         21.0500    16.3800    -5.1990 n2         1 SSX      -0.839100
     17 N16         15.1650    17.7230    -3.9070 n8         1 SSX      -1.016200
     18 O02         20.2710    22.2440    -6.9540 os         1 SSX      -0.346100
     19 S11         20.4030    19.2370    -6.2570 ss         1 SSX       0.184400
     20 H191        17.8070    23.3860    -7.2770 ha         1 SSX       0.116000
     21 H012        21.4700    23.9180    -7.3110 h1         1 SSX       0.043367
     22 H011        19.9640    23.8630    -8.2500 h1         1 SSX       0.043367
     23 H013        19.9210    24.2640    -6.5120 h1         1 SSX       0.043367
     24 H061        17.1570    17.5070    -5.8620 ha         1 SSX       0.222000
     25 H132        14.5530    19.9390    -7.2900 hc         1 SSX       0.051700
     26 H131        15.2820    18.4950    -6.6530 hc         1 SSX       0.051700
     27 H141        14.5040    20.9230    -4.9640 hc         1 SSX       0.045700
     28 H151        16.2560    19.5270    -3.8910 h1         1 SSX       0.034700
     29 H152        14.7310    19.5590    -2.9840 h1         1 SSX       0.034700
     30 H173        12.4880    19.6550    -4.2290 hc         1 SSX       0.033700
     31 H172        12.4640    20.0270    -5.9620 hc         1 SSX       0.033700
     32 H171        12.8560    18.3840    -5.4180 hc         1 SSX       0.033700
     33 H181        15.6640    22.1940    -7.0600 ha         1 SSX       0.109000
     34 H092        18.1770    15.5990    -6.1950 hn         1 SSX       0.468000
     35 H101        21.1320    15.4290    -4.8260 hn         1 SSX       0.373400
     36 H162        15.5710    17.3790    -3.0290 hn         1 SSX       0.395000
     37 H161        14.1860    17.4220    -3.8550 hn         1 SSX       0.395000
     38 H091        19.4450    14.5540    -5.7120 hn         1 SSX       0.468000
@<TRIPOS>BOND
     1     1     3 ar  
     2     1    14 ar  
     3     1    20 1   
     4     2    18 1   
     5     2    21 1   
     6     2    22 1   
     7     2    23 1   
     8     3     4 ar  
     9     3    18 1   
    10     4     5 ar  
    11     4    19 1   
    12     5     6 1   
    13     5     9 ar  
    14     6     7 2   
    15     6    24 1   
    16     7     8 1   
    17     7    19 1   
    18     8    15 1   
    19     8    16 2   
    20     9    10 1   
    21     9    14 ar  
    22    10    11 1   
    23    10    25 1   
    24    10    26 1   
    25    11    12 1   
    26    11    13 1   
    27    11    27 1   
    28    12    17 1   
    29    12    28 1   
    30    12    29 1   
    31    13    30 1   
    32    13    31 1   
    33    13    32 1   
    34    14    33 1   
    35    15    34 1   
    36    15    38 1   
    37    16    35 1   
    38    17    36 1   
    39    17    37 1   
@<TRIPOS>SUBSTRUCTURE
     1 SSX         1 TEMP              0 ****  ****    0 ROOT
