@<TRIPOS>MOLECULE
SSY
   24    24     1     0     0
SMALL
bcc


@<TRIPOS>ATOM
      1 C4          44.4030    94.0560     8.7790 ca         1 SSY      -0.117000
      2 C5          43.0760    94.1610     9.1690 ca         1 SSY      -0.118000
      3 C6          42.2940    95.1940     8.6510 ca         1 SSY       0.047600
      4 C7          42.8560    96.0980     7.7570 ca         1 SSY      -0.122000
      5 N           40.9420    95.3950     8.9700 ns         1 SSY      -0.451100
      6 C           46.1740    96.8590     5.9930 c3         1 SSY      -0.194100
      7 O           44.0310    97.8830     5.9870 o          1 SSY      -0.521100
      8 C2          44.1870    95.9890     7.3720 ca         1 SSY      -0.150600
      9 C3          44.9650    94.9550     7.8880 ca         1 SSY      -0.109000
     10 C9          38.7070    95.1560     9.8890 c3         1 SSY       0.585900
     11 F           38.4800    96.3170     9.2700 f          1 SSY      -0.221300
     12 F1          38.3630    95.2980    11.1650 f          1 SSY      -0.221300
     13 F2          37.9070    94.2410     9.3460 f          1 SSY      -0.221300
     14 O1          40.4810    93.7120    10.4540 o          1 SSY      -0.525100
     15 H1          45.0050    93.2540     9.1850 ha         1 SSY       0.141000
     16 H2          42.6720    93.4450     9.8660 ha         1 SSY       0.168000
     17 H3          42.2500    96.9000     7.3530 ha         1 SSY       0.153000
     18 H4          40.5170    96.1840     8.5050 hn         1 SSY       0.341500
     19 H5          46.4380    97.6460     5.2900 hc         1 SSY       0.064033
     20 H6          46.8360    96.9210     6.8580 hc         1 SSY       0.064033
     21 H7          46.3540    95.8920     5.5210 hc         1 SSY       0.064033
     22 H8          46.0020    94.8400     7.6060 ha         1 SSY       0.138000
     23 C1          44.7370    96.9920     6.4100 c          1 SSY       0.583700
     24 C8          40.1680    94.6800     9.7970 c          1 SSY       0.619100
@<TRIPOS>BOND
     1     1     2 ar  
     2     1     9 ar  
     3     1    15 1   
     4     2     3 ar  
     5     2    16 1   
     6     3     4 ar  
     7     3     5 1   
     8     4     8 ar  
     9     4    17 1   
    10     5    18 1   
    11     5    24 1   
    12     6    19 1   
    13     6    20 1   
    14     6    21 1   
    15     6    23 1   
    16     7    23 2   
    17     8     9 ar  
    18     8    23 1   
    19     9    22 1   
    20    10    11 1   
    21    10    12 1   
    22    10    13 1   
    23    10    24 1   
    24    14    24 2   
@<TRIPOS>SUBSTRUCTURE
     1 SSY         1 TEMP              0 ****  ****    0 ROOT
