@<TRIPOS>MOLECULE
SSY
   24    24     1     0     0
SMALL
No Charge or Current Charge


@<TRIPOS>ATOM
      1 C4          44.4930    94.1250     8.8990 ca         1 SSY      -0.099000
      2 C5          43.1450    94.2100     9.2790 ca         1 SSY      -0.100000
      3 C6          42.3020    95.1750     8.6880 ca         1 SSY      -0.045000
      4 C7          42.8360    96.0440     7.7160 ca         1 SSY      -0.104000
      5 N           40.9240    95.3270     9.0180 ns         1 SSY      -0.125000
      6 C           46.1970    96.8450     5.8460 c3         1 SSY      -0.194100
      7 O           44.0000    97.7680     5.7540 o          1 SSY      -0.521100
      8 C2          44.1940    95.9700     7.3230 ca         1 SSY      -0.150600
      9 C3          45.0180    94.9950     7.9300 ca         1 SSY      -0.091000
     10 C9          38.6320    95.1910     9.9200 c3         1 SSY       0.222000
     11 F           38.5870    96.5000    10.2650 f          1 SSY      -0.100000
     12 F1          37.8480    94.5190    10.7980 f          1 SSY      -0.100000
     13 F2          38.0560    95.0750     8.7000 f          1 SSY      -0.100000
     14 O1          40.4610    93.7320    10.6270 o          1 SSY      -0.525100
     15 H1          45.1370    93.3780     9.3590 ha         1 SSY       0.123000
     16 H2          42.7810    93.5180    10.0320 ha         1 SSY       0.150000
     17 H3          42.1850    96.7890     7.2610 ha         1 SSY       0.135000
     18 H4          40.4620    96.0660     8.5020 hn         1 SSY       0.175000
     19 H5          46.4570    97.5880     5.0830 hc         1 SSY       0.064033
     20 H6          46.8320    96.9450     6.7330 hc         1 SSY       0.064033
     21 H7          46.4140    95.8270     5.5050 hc         1 SSY       0.064033
     22 H8          46.0670    94.8960     7.6630 ha         1 SSY       0.120000
     23 C1          44.7290    96.9280     6.2700 c          1 SSY       0.583700
     24 C8          40.0890    94.6580     9.9100 c          1 SSY       0.552100
@<TRIPOS>BOND
     1     1     2 ar  
     2     1     9 ar  
     3     1    15 1   
     4     2     3 ar  
     5     2    16 1   
     6     3     4 ar  
     7     3     5 1   
     8     4     8 ar  
     9     4    17 1   
    10     5    18 1   
    11     5    24 1   
    12     6    19 1   
    13     6    20 1   
    14     6    21 1   
    15     6    23 1   
    16     7    23 2   
    17     8     9 ar  
    18     8    23 1   
    19     9    22 1   
    20    10    11 1   
    21    10    12 1   
    22    10    13 1   
    23    10    24 1   
    24    14    24 2   
@<TRIPOS>SUBSTRUCTURE
     1 SSY         1 TEMP              0 ****  ****    0 ROOT
