@<TRIPOS>MOLECULE
ST0
   34    35     1     0     0
SMALL
No Charge or Current Charge


@<TRIPOS>ATOM
      1 C4          20.0950    -5.4970   -14.4920 c5         1 ST0      -0.094400
      2 C5          19.0560    -2.2360   -17.2250 c6         1 ST0      -0.292700
      3 C6          17.6640    -2.9360   -17.1130 c6         1 ST0      -0.085900
      4 C7          17.1150    -3.2970   -18.5150 c6         1 ST0       0.160100
      5 C8          18.3570    -1.5110   -19.5790 c6         1 ST0       0.160100
      6 N           19.6810    -3.1140   -14.6980 n7         1 ST0      -0.929300
      7 C           20.6040    -4.1870   -15.1310 c5         1 ST0       0.231500
      8 O           18.7850    -0.8060   -14.9620 o          1 ST0      -0.548500
      9 C1          21.9630    -4.0640   -14.3940 c5         1 ST0      -0.094400
     10 C2          22.5550    -5.4970   -14.5530 c5         1 ST0      -0.078900
     11 C3          21.3130    -6.4330   -14.7200 c5         1 ST0      -0.078900
     12 C9          18.9730    -1.0490   -18.2350 c6         1 ST0      -0.085900
     13 O1          21.1460    -1.3360   -15.7340 o          1 ST0      -0.548500
     14 O2          17.0650    -2.1180   -19.3490 os         1 ST0      -0.452000
     15 S           19.7380    -1.7130   -15.6030 s6         1 ST0       1.225100
     16 H1          19.8740    -5.3810   -13.4230 hc         1 ST0       0.054450
     17 H2          19.1860    -5.8710   -14.9750 hc         1 ST0       0.054450
     18 H3          19.7840    -2.9580   -17.6120 h1         1 ST0       0.087700
     19 H4          16.9460    -2.2780   -16.6030 hc         1 ST0       0.067700
     20 H5          17.7360    -3.8490   -16.5060 hc         1 ST0       0.067700
     21 H6          16.1020    -3.7160   -18.4250 h1         1 ST0       0.047450
     22 H7          17.7560    -4.0530   -18.9920 h1         1 ST0       0.047450
     23 H8          19.0180    -2.2390   -20.0720 h1         1 ST0       0.047450
     24 H9          18.2340    -0.6510   -20.2510 h1         1 ST0       0.047450
     25 H10         19.9550    -2.7600   -13.7860 hn         1 ST0       0.501000
     26 H11         20.7040    -4.2880   -16.2220 h1         1 ST0       0.060700
     27 H12         22.6220    -3.3060   -14.8310 hc         1 ST0       0.054450
     28 H13         21.8360    -3.8120   -13.3340 hc         1 ST0       0.054450
     29 H14         23.2080    -5.5620   -15.4320 hc         1 ST0       0.046950
     30 H15         23.1650    -5.7760   -13.6850 hc         1 ST0       0.046950
     31 H16         21.2880    -6.8680   -15.7260 hc         1 ST0       0.046950
     32 H17         21.3240    -7.2700   -14.0120 hc         1 ST0       0.046950
     33 H18         19.9710    -0.6270   -18.4150 hc         1 ST0       0.067700
     34 H19         18.3590    -0.2370   -17.8200 hc         1 ST0       0.067700
@<TRIPOS>BOND
     1     1     7 1   
     2     1    11 1   
     3     1    16 1   
     4     1    17 1   
     5     2     3 1   
     6     2    12 1   
     7     2    15 1   
     8     2    18 1   
     9     3     4 1   
    10     3    19 1   
    11     3    20 1   
    12     4    14 1   
    13     4    21 1   
    14     4    22 1   
    15     5    12 1   
    16     5    14 1   
    17     5    23 1   
    18     5    24 1   
    19     6     7 1   
    20     6    15 1   
    21     6    25 1   
    22     7     9 1   
    23     7    26 1   
    24     8    15 2   
    25     9    10 1   
    26     9    27 1   
    27     9    28 1   
    28    10    11 1   
    29    10    29 1   
    30    10    30 1   
    31    11    31 1   
    32    11    32 1   
    33    12    33 1   
    34    12    34 1   
    35    13    15 2   
@<TRIPOS>SUBSTRUCTURE
     1 ST0         1 TEMP              0 ****  ****    0 ROOT
