@<TRIPOS>MOLECULE
ST0
   34    35     1     0     0
SMALL
abcg2


@<TRIPOS>ATOM
      1 C4          20.2840    -5.6340   -14.7510 c5         1 ST0      -0.094400
      2 C5          18.9430    -2.2850   -17.3070 c6         1 ST0      -0.292700
      3 C6          17.4970    -2.7240   -17.0900 c6         1 ST0      -0.085900
      4 C7          16.8540    -3.0270   -18.4390 c6         1 ST0       0.160100
      5 C8          18.2790    -1.5370   -19.5860 c6         1 ST0       0.160100
      6 N           19.7510    -3.2170   -14.9110 n7         1 ST0      -0.929300
      7 C           20.7910    -4.2300   -15.0920 c5         1 ST0       0.231500
      8 O           18.8850    -0.9110   -15.0290 o          1 ST0      -0.548500
      9 C1          22.0290    -4.0790   -14.2010 c5         1 ST0      -0.094400
     10 C2          22.7020    -5.4600   -14.2680 c5         1 ST0      -0.078900
     11 C3          21.5670    -6.4710   -14.6150 c5         1 ST0      -0.078900
     12 C9          19.0170    -1.1350   -18.3130 c6         1 ST0      -0.085900
     13 O1          21.0840    -1.3940   -16.0860 o          1 ST0      -0.548500
     14 O2          16.9300    -1.9110   -19.3230 os         1 ST0      -0.452000
     15 S           19.7380    -1.8270   -15.7610 s6         1 ST0       1.225100
     16 H1          19.7520    -5.5860   -13.7970 hc         1 ST0       0.054450
     17 H2          19.5910    -6.0190   -15.5000 hc         1 ST0       0.054450
     18 H3          19.5390    -3.1270   -17.6730 h1         1 ST0       0.087700
     19 H4          16.9410    -1.9230   -16.5990 hc         1 ST0       0.067700
     20 H5          17.4530    -3.6100   -16.4560 hc         1 ST0       0.067700
     21 H6          15.7950    -3.2520   -18.3160 h1         1 ST0       0.047450
     22 H7          17.3430    -3.8940   -18.9040 h1         1 ST0       0.047450
     23 H8          18.8020    -2.3730   -20.0720 h1         1 ST0       0.047450
     24 H9          18.2390    -0.7020   -20.2840 h1         1 ST0       0.047450
     25 H10         19.3900    -3.0980   -13.9720 hn         1 ST0       0.501000
     26 H11         21.0920    -4.2030   -16.1410 h1         1 ST0       0.060700
     27 H12         22.6780    -3.2640   -14.5210 hc         1 ST0       0.054450
     28 H13         21.6930    -3.8610   -13.1830 hc         1 ST0       0.054450
     29 H14         23.4640    -5.4720   -15.0490 hc         1 ST0       0.046950
     30 H15         23.2000    -5.7100   -13.3310 hc         1 ST0       0.046950
     31 H16         21.7900    -6.9770   -15.5550 hc         1 ST0       0.046950
     32 H17         21.4610    -7.2440   -13.8540 hc         1 ST0       0.046950
     33 H18         20.0530    -0.8970   -18.5540 hc         1 ST0       0.067700
     34 H19         18.5500    -0.2410   -17.8910 hc         1 ST0       0.067700
@<TRIPOS>BOND
     1     1     7 1   
     2     1    11 1   
     3     1    16 1   
     4     1    17 1   
     5     2     3 1   
     6     2    12 1   
     7     2    15 1   
     8     2    18 1   
     9     3     4 1   
    10     3    19 1   
    11     3    20 1   
    12     4    14 1   
    13     4    21 1   
    14     4    22 1   
    15     5    12 1   
    16     5    14 1   
    17     5    23 1   
    18     5    24 1   
    19     6     7 1   
    20     6    15 1   
    21     6    25 1   
    22     7     9 1   
    23     7    26 1   
    24     8    15 2   
    25     9    10 1   
    26     9    27 1   
    27     9    28 1   
    28    10    11 1   
    29    10    29 1   
    30    10    30 1   
    31    11    31 1   
    32    11    32 1   
    33    12    33 1   
    34    12    34 1   
    35    13    15 2   
@<TRIPOS>SUBSTRUCTURE
     1 ST0         1 TEMP              0 ****  ****    0 ROOT
