@<TRIPOS>MOLECULE
ST1
   24    24     1     0     0
SMALL
No Charge or Current Charge


@<TRIPOS>ATOM
      1 C           -0.3580     0.2310    -0.1750 c          1 ST1       0.716600
      2 O1          -0.2900     0.3320    -1.3920 o          1 ST1      -0.703000
      3 O2          -1.2990     0.6660     0.4750 o          1 ST1      -0.703000
      4 C1           0.7770    -0.4660     0.5630 ca         1 ST1      -0.103600
      5 C2           0.7510    -0.6100     1.9680 ca         1 ST1      -0.144000
      6 C3           1.7990    -1.2510     2.6490 ca         1 ST1       0.118100
      7 O3           1.7610    -1.3030     4.0150 oh         1 ST1      -0.536100
      8 C4           2.9000    -1.7820     1.9340 ca         1 ST1      -0.072000
      9 N4           3.9770    -2.4000     2.6290 ns         1 ST1      -0.158000
     10 C7           3.9660    -3.4480     3.5370 c          1 ST1       0.622100
     11 O4           2.9640    -4.0990     3.8200 o          1 ST1      -0.583100
     12 CM4          5.3300    -3.7690     4.1430 c3         1 ST1      -0.178100
     13 C5           2.9500    -1.6310     0.5210 ca         1 ST1      -0.160200
     14 N5           4.0930    -2.1530    -0.3010 no         1 ST1       0.694200
     15 ON1          4.5900    -3.2460     0.0030 o          1 ST1      -0.416000
     16 ON2          4.4060    -1.5210    -1.3190 o          1 ST1      -0.416000
     17 C6           1.8880    -0.9750    -0.1450 ca         1 ST1      -0.058000
     18 H2          -0.0860    -0.2070     2.5330 ha         1 ST1       0.142000
     19 HO3          0.9270    -0.8910     4.3230 ho         1 ST1       0.462000
     20 HN4          4.8900    -2.0070     2.4400 hn         1 ST1       0.150000
     21 HM41         6.0480    -3.9420     3.3330 hc         1 ST1       0.053033
     22 HM42         5.2970    -4.6140     4.8400 hc         1 ST1       0.053033
     23 HM43         5.7310    -2.8660     4.6180 hc         1 ST1       0.053033
     24 H6           1.9220    -0.8680    -1.2290 ha         1 ST1       0.165000
@<TRIPOS>BOND
     1     1     2 1   
     2     1     3 1   
     3     1     4 1   
     4     4     5 ar  
     5     4    17 ar  
     6     5     6 ar  
     7     5    18 1   
     8     6     7 1   
     9     6     8 ar  
    10     7    19 1   
    11     8     9 1   
    12     8    13 ar  
    13     9    10 1   
    14     9    20 1   
    15    10    11 2   
    16    10    12 1   
    17    12    21 1   
    18    12    22 1   
    19    12    23 1   
    20    13    14 1   
    21    13    17 ar  
    22    14    15 1   
    23    14    16 1   
    24    17    24 1   
@<TRIPOS>SUBSTRUCTURE
     1 ST1         1 TEMP              0 ****  ****    0 ROOT
