@<TRIPOS>MOLECULE
ST1
   24    24     1     0     0
SMALL
bcc


@<TRIPOS>ATOM
      1 C           -0.3740     0.0830    -0.1890 c          1 ST1       0.927200
      2 O1          -0.2770     0.0770    -1.4280 o          1 ST1      -0.808300
      3 O2          -1.3110     0.5270     0.4980 o          1 ST1      -0.808300
      4 C1           0.7960    -0.5300     0.5810 ca         1 ST1      -0.103600
      5 C2           0.7750    -0.5850     1.9660 ca         1 ST1      -0.162000
      6 C3           1.8340    -1.1310     2.6840 ca         1 ST1       0.118100
      7 O3           1.8570    -1.1730     4.0230 oh         1 ST1      -0.497100
      8 C4           2.9410    -1.6540     2.0110 ca         1 ST1       0.020600
      9 N4           4.0280    -2.1630     2.7400 ns         1 ST1      -0.484100
     10 C7           4.0010    -3.3990     3.2940 c          1 ST1       0.689100
     11 O4           3.0230    -4.1200     3.2200 o          1 ST1      -0.583100
     12 CM4          5.2790    -3.8130     3.9710 c3         1 ST1      -0.178100
     13 C5           2.9290    -1.5970     0.6190 ca         1 ST1      -0.160200
     14 N5           4.0380    -2.1640    -0.1350 no         1 ST1       0.314200
     15 ON1          4.4570    -3.2470     0.1930 o          1 ST1      -0.226000
     16 ON2          4.4670    -1.5180    -1.0620 o          1 ST1      -0.226000
     17 C6           1.8980    -1.0280    -0.1030 ca         1 ST1      -0.076000
     18 H2          -0.0820    -0.1840     2.4950 ha         1 ST1       0.160000
     19 HO3          1.0500    -0.7860     4.3830 ho         1 ST1       0.423000
     20 HN4          4.8670    -1.6040     2.8070 hn         1 ST1       0.316500
     21 HM41         5.8720    -4.4080     3.2740 hc         1 ST1       0.053033
     22 HM42         5.0580    -4.4380     4.8350 hc         1 ST1       0.053033
     23 HM43         5.8860    -2.9680     4.2900 hc         1 ST1       0.053033
     24 H6           1.9230    -0.9950    -1.1830 ha         1 ST1       0.183000
@<TRIPOS>BOND
     1     1     2 1   
     2     1     3 1   
     3     1     4 1   
     4     4     5 ar  
     5     4    17 ar  
     6     5     6 ar  
     7     5    18 1   
     8     6     7 1   
     9     6     8 ar  
    10     7    19 1   
    11     8     9 1   
    12     8    13 ar  
    13     9    10 1   
    14     9    20 1   
    15    10    11 2   
    16    10    12 1   
    17    12    21 1   
    18    12    22 1   
    19    12    23 1   
    20    13    14 1   
    21    13    17 ar  
    22    14    15 1   
    23    14    16 1   
    24    17    24 1   
@<TRIPOS>SUBSTRUCTURE
     1 ST1         1 TEMP              0 ****  ****    0 ROOT
