@<TRIPOS>MOLECULE
ST2
   24    24     1     0     0
SMALL
abcg2


@<TRIPOS>ATOM
      1 C           -0.0330     0.1630    -3.4600 c          1 ST2       0.711600
      2 O1           1.0520     0.3450    -4.0430 o          1 ST2      -0.715500
      3 O2          -1.1640     0.1390    -3.9820 o          1 ST2      -0.715500
      4 C1           0.0260    -0.0520    -1.9480 ca         1 ST2      -0.066600
      5 C2           1.2460    -0.0080    -1.2900 ca         1 ST2      -0.175000
      6 C3           1.3230    -0.1920     0.0940 ca         1 ST2       0.292000
      7 N3           2.5400    -0.1980     0.7370 nv         1 ST2      -1.087000
      8 C4           0.1410    -0.4300     0.8080 ca         1 ST2      -0.251000
      9 N4           0.1720    -0.6050     2.2120 ns         1 ST2      -0.164000
     10 C7          -0.0140     0.4270     3.0810 c          1 ST2       0.584100
     11 O4          -0.3090     1.5460     2.7060 o          1 ST2      -0.579100
     12 CM4          0.1850     0.0810     4.5340 c3         1 ST2      -0.184100
     13 C5          -1.0820    -0.4850     0.1370 ca         1 ST2       0.151100
     14 O5          -2.2280    -0.7200     0.8050 oh         1 ST2      -0.542100
     15 C6          -1.1440    -0.2960    -1.2370 ca         1 ST2      -0.148000
     16 H2           2.1520     0.1770    -1.8530 ha         1 ST2       0.133000
     17 HN31         3.2810     0.2900     0.2610 hn         1 ST2       0.434500
     18 HN32         2.5310    -0.0020     1.7240 hn         1 ST2       0.434500
     19 HN4          0.4800    -1.4930     2.5810 hn         1 ST2       0.138000
     20 HM41        -0.6280     0.4990     5.1260 hc         1 ST2       0.051700
     21 HM42         0.2420    -0.9900     4.7200 hc         1 ST2       0.051700
     22 HM43         1.1120     0.5380     4.8820 hc         1 ST2       0.051700
     23 HO5         -2.0290    -0.9280     1.7270 ho         1 ST2       0.447000
     24 H6          -2.0970    -0.3390    -1.7470 ha         1 ST2       0.147000
@<TRIPOS>BOND
     1     1     2 1   
     2     1     3 1   
     3     1     4 1   
     4     4     5 ar  
     5     4    15 ar  
     6     5     6 ar  
     7     5    16 1   
     8     6     7 1   
     9     6     8 ar  
    10     7    17 1   
    11     7    18 1   
    12     8     9 1   
    13     8    13 ar  
    14     9    10 1   
    15     9    19 1   
    16    10    11 2   
    17    10    12 1   
    18    12    20 1   
    19    12    21 1   
    20    12    22 1   
    21    13    14 1   
    22    13    15 ar  
    23    14    23 1   
    24    15    24 1   
@<TRIPOS>SUBSTRUCTURE
     1 ST2         1 TEMP              0 ****  ****    0 ROOT
