@<TRIPOS>MOLECULE
ST2
   24    24     1     0     0
SMALL
No Charge or Current Charge


@<TRIPOS>ATOM
      1 C            0.0100    -0.1070    -3.5690 c          1 ST2       0.711600
      2 O1           1.0570    -0.1480    -4.2020 o          1 ST2      -0.715500
      3 O2          -1.0870    -0.0540    -4.1100 o          1 ST2      -0.715500
      4 C1           0.0730    -0.1200    -2.0440 ca         1 ST2      -0.066600
      5 C2           1.3080    -0.1810    -1.3640 ca         1 ST2      -0.175000
      6 C3           1.3660    -0.1960     0.0360 ca         1 ST2       0.292000
      7 N3           2.5990    -0.2450     0.6320 nv         1 ST2      -1.087000
      8 C4           0.1900    -0.1460     0.8170 ca         1 ST2      -0.251000
      9 N4           0.3290    -0.2220     2.2500 ns         1 ST2      -0.164000
     10 C7          -0.4790     0.1660     3.3130 c          1 ST2       0.584100
     11 O4          -1.5550     0.7360     3.1840 o          1 ST2      -0.579100
     12 CM4          0.0900    -0.1670     4.6890 c3         1 ST2      -0.184100
     13 C5          -1.0530    -0.0860     0.1360 ca         1 ST2       0.151100
     14 O5          -2.2380    -0.0660     0.8010 oh         1 ST2      -0.542100
     15 C6          -1.1030    -0.0760    -1.2660 ca         1 ST2      -0.148000
     16 H2           2.2340    -0.2180    -1.9320 ha         1 ST2       0.133000
     17 HN31         3.4290    -0.1300     0.0540 hn         1 ST2       0.434500
     18 HN32         2.6860     0.0130     1.6100 hn         1 ST2       0.434500
     19 HN4          1.1920    -0.6610     2.5440 hn         1 ST2       0.138000
     20 HM41        -0.5640     0.1540     5.5080 hc         1 ST2       0.051700
     21 HM42         0.3030    -1.2410     4.7380 hc         1 ST2       0.051700
     22 HM43         1.0910     0.2710     4.7770 hc         1 ST2       0.051700
     23 HO5         -2.0490     0.2240     1.7300 ho         1 ST2       0.447000
     24 H6          -2.0730    -0.0350    -1.7540 ha         1 ST2       0.147000
@<TRIPOS>BOND
     1     1     2 1   
     2     1     3 1   
     3     1     4 1   
     4     4     5 ar  
     5     4    15 ar  
     6     5     6 ar  
     7     5    16 1   
     8     6     7 1   
     9     6     8 ar  
    10     7    17 1   
    11     7    18 1   
    12     8     9 1   
    13     8    13 ar  
    14     9    10 1   
    15     9    19 1   
    16    10    11 2   
    17    10    12 1   
    18    12    20 1   
    19    12    21 1   
    20    12    22 1   
    21    13    14 1   
    22    13    15 ar  
    23    14    23 1   
    24    15    24 1   
@<TRIPOS>SUBSTRUCTURE
     1 ST2         1 TEMP              0 ****  ****    0 ROOT
