@<TRIPOS>MOLECULE
ST3
   23    23     1     0     0
SMALL
abcg2


@<TRIPOS>ATOM
      1 C            0.1760     0.0900    -3.3540 c          1 ST3       0.711600
      2 O1          -0.8950     0.2850    -3.9610 o          1 ST3      -0.719500
      3 O2           1.3120     0.0050    -3.8580 o          1 ST3      -0.719500
      4 C1           0.0900    -0.0590    -1.8390 ca         1 ST3      -0.102600
      5 C2          -1.1310     0.0670    -1.1920 ca         1 ST3      -0.136000
      6 C3          -1.2470    -0.0520     0.1950 ca         1 ST3       0.228000
      7 N3          -2.4770     0.0410     0.8210 nv         1 ST3      -1.077000
      8 C4          -0.0890    -0.3280     0.9380 ca         1 ST3      -0.137000
      9 N4          -0.2020    -0.4870     2.3370 ns         1 ST3      -0.157000
     10 C7           0.4550     0.2660     3.2540 c          1 ST3       0.593100
     11 O4           1.2180     1.1650     2.9480 o          1 ST3      -0.593100
     12 CM4          0.1530    -0.1110     4.6840 c3         1 ST3      -0.184100
     13 C5           1.1330    -0.4600     0.2930 ca         1 ST3      -0.100000
     14 C6           1.2310    -0.3210    -1.0820 ca         1 ST3      -0.109000
     15 H2          -2.0190     0.2780    -1.7760 ha         1 ST3       0.129000
     16 HN31        -3.1890     0.4980     0.2730 hn         1 ST3       0.425500
     17 HN32        -2.4550     0.4090     1.7600 hn         1 ST3       0.425500
     18 HN4         -0.8340    -1.1980     2.6770 hn         1 ST3       0.141000
     19 HM41         0.7020     0.5300     5.3690 hc         1 ST3       0.050367
     20 HM42        -0.9130    -0.0150     4.8920 hc         1 ST3       0.050367
     21 HM43         0.4300    -1.1480     4.8740 hc         1 ST3       0.050367
     22 H5           2.0150    -0.6890     0.8770 ha         1 ST3       0.098000
     23 H6           2.1920    -0.4260    -1.5670 ha         1 ST3       0.132000
@<TRIPOS>BOND
     1     1     2 1   
     2     1     3 1   
     3     1     4 1   
     4     4     5 ar  
     5     4    14 ar  
     6     5     6 ar  
     7     5    15 1   
     8     6     7 1   
     9     6     8 ar  
    10     7    16 1   
    11     7    17 1   
    12     8     9 1   
    13     8    13 ar  
    14     9    10 1   
    15     9    18 1   
    16    10    11 2   
    17    10    12 1   
    18    12    19 1   
    19    12    20 1   
    20    12    21 1   
    21    13    14 ar  
    22    13    22 1   
    23    14    23 1   
@<TRIPOS>SUBSTRUCTURE
     1 ST3         1 TEMP              0 ****  ****    0 ROOT
