@<TRIPOS>MOLECULE
ST3
   23    23     1     0     0
SMALL
No Charge or Current Charge


@<TRIPOS>ATOM
      1 C            0.1320     0.0070    -3.4250 c          1 ST3       0.711600
      2 O1          -0.9090     0.0620    -4.0650 o          1 ST3      -0.719500
      3 O2           1.2340    -0.0140    -3.9560 o          1 ST3      -0.719500
      4 C1           0.0540    -0.0370    -1.9040 ca         1 ST3      -0.102600
      5 C2          -1.1940    -0.0190    -1.2380 ca         1 ST3      -0.136000
      6 C3          -1.2730    -0.0580     0.1640 ca         1 ST3       0.228000
      7 N3          -2.5140    -0.0240     0.7550 nv         1 ST3      -1.077000
      8 C4          -0.0940    -0.1170     0.9430 ca         1 ST3      -0.137000
      9 N4          -0.1900    -0.1850     2.3680 ns         1 ST3      -0.157000
     10 C7           0.7320     0.0660     3.3780 c          1 ST3       0.593100
     11 O4           1.8690     0.4870     3.1930 o          1 ST3      -0.593100
     12 CM4          0.2040    -0.2100     4.7840 c3         1 ST3      -0.184100
     13 C5           1.1540    -0.1440     0.2840 ca         1 ST3      -0.100000
     14 C6           1.2260    -0.1020    -1.1180 ca         1 ST3      -0.109000
     15 H2          -2.1120     0.0290    -1.8170 ha         1 ST3       0.129000
     16 HN31        -3.3360     0.1480     0.1800 hn         1 ST3       0.425500
     17 HN32        -2.5960     0.1790     1.7480 hn         1 ST3       0.425500
     18 HN4         -1.0910    -0.4990     2.7030 hn         1 ST3       0.141000
     19 HM41         0.9440     0.0020     5.5650 hc         1 ST3       0.050367
     20 HM42        -0.7200     0.3590     4.9370 hc         1 ST3       0.050367
     21 HM43        -0.1520    -1.2460     4.8350 hc         1 ST3       0.050367
     22 H5           2.0830    -0.2170     0.8420 ha         1 ST3       0.098000
     23 H6           2.2040    -0.1260    -1.5950 ha         1 ST3       0.132000
@<TRIPOS>BOND
     1     1     2 1   
     2     1     3 1   
     3     1     4 1   
     4     4     5 ar  
     5     4    14 ar  
     6     5     6 ar  
     7     5    15 1   
     8     6     7 1   
     9     6     8 ar  
    10     7    16 1   
    11     7    17 1   
    12     8     9 1   
    13     8    13 ar  
    14     9    10 1   
    15     9    18 1   
    16    10    11 2   
    17    10    12 1   
    18    12    19 1   
    19    12    20 1   
    20    12    21 1   
    21    13    14 ar  
    22    13    22 1   
    23    14    23 1   
@<TRIPOS>SUBSTRUCTURE
     1 ST3         1 TEMP              0 ****  ****    0 ROOT
