@<TRIPOS>MOLECULE
ST4
   30    30     1     0     0
SMALL
No Charge or Current Charge


@<TRIPOS>ATOM
      1 C            1.2480    -0.0050    -3.5600 c          1 ST4       0.710600
      2 O1           0.2890     0.1670    -4.2990 o          1 ST4      -0.718000
      3 O2           2.3860    -0.1650    -3.9810 o          1 ST4      -0.718000
      4 C1           1.0180    -0.0230    -2.0530 ca         1 ST4      -0.099600
      5 C2          -0.2720     0.1800    -1.5100 ca         1 ST4      -0.149000
      6 C3          -0.4930     0.1620    -0.1200 ca         1 ST4       0.253000
      7 N3          -1.7820     0.3800     0.3780 nu         1 ST4      -0.980200
      8 C7          -2.9020    -0.2010    -0.0890 c3         1 ST4       0.656900
      9 N1          -3.4060    -0.6040     1.0990 n8         1 ST4      -1.039200
     10 N2          -3.5760     0.9230    -0.2570 n8         1 ST4      -1.039200
     11 C4           0.5900    -0.0460     0.7670 ca         1 ST4      -0.147000
     12 N4           0.3570    -0.0750     2.1770 ns         1 ST4      -0.164000
     13 C8           1.2100     0.0880     3.2630 c          1 ST4       0.596100
     14 O4           2.3990     0.3720     3.1770 o          1 ST4      -0.591100
     15 CM4          0.5310    -0.0980     4.6190 c3         1 ST4      -0.185100
     16 C5           1.8780    -0.2580     0.2300 ca         1 ST4      -0.095000
     17 C6           2.0870    -0.2450    -1.1590 ca         1 ST4      -0.112000
     18 H2          -1.1110     0.3600    -2.1760 ha         1 ST4       0.132000
     19 HN3         -1.8380     0.4460     1.3820 hn         1 ST4       0.447000
     20 H3          -2.7920    -0.9110    -0.9270 h3         1 ST4       0.061700
     21 HN11        -4.2660    -1.1040     0.8680 hn         1 ST4       0.413750
     22 HN12        -2.7840    -1.3530     1.4030 hn         1 ST4       0.413750
     23 HN21        -3.7730     1.1210     0.7170 hn         1 ST4       0.413750
     24 HN22        -2.7900     1.5510    -0.4050 hn         1 ST4       0.413750
     25 HN4         -0.6000    -0.2770     2.4340 hn         1 ST4       0.140000
     26 HM41         1.2170     0.0450     5.4610 hc         1 ST4       0.052033
     27 HM42        -0.3320     0.5760     4.6820 hc         1 ST4       0.052033
     28 HM43         0.0550    -1.0850     4.6480 hc         1 ST4       0.052033
     29 H5           2.7290    -0.4530     0.8750 ha         1 ST4       0.097000
     30 H6           3.0930    -0.4130    -1.5390 ha         1 ST4       0.133000
@<TRIPOS>BOND
     1     1     2 1   
     2     1     3 1   
     3     1     4 1   
     4     4     5 ar  
     5     4    17 ar  
     6     5     6 ar  
     7     5    18 1   
     8     6     7 1   
     9     6    11 ar  
    10     7     8 1   
    11     7    19 1   
    12     8     9 1   
    13     8    10 1   
    14     8    20 1   
    15     9    21 1   
    16     9    22 1   
    17    10    23 1   
    18    10    24 1   
    19    11    12 1   
    20    11    16 ar  
    21    12    13 1   
    22    12    25 1   
    23    13    14 2   
    24    13    15 1   
    25    15    26 1   
    26    15    27 1   
    27    15    28 1   
    28    16    17 ar  
    29    16    29 1   
    30    17    30 1   
@<TRIPOS>SUBSTRUCTURE
     1 ST4         1 TEMP              0 ****  ****    0 ROOT
