@<TRIPOS>MOLECULE
ST4
   30    30     1     0     0
SMALL
bcc


@<TRIPOS>ATOM
      1 C            1.1560     0.0820    -3.4100 c          1 ST4       0.921200
      2 O1           0.1090     0.0720    -4.0860 o          1 ST4      -0.823300
      3 O2           2.3180     0.2180    -3.8390 o          1 ST4      -0.823300
      4 C1           1.0030    -0.0910    -1.9020 ca         1 ST4      -0.099600
      5 C2          -0.2630    -0.2320    -1.3460 ca         1 ST4      -0.167000
      6 C3          -0.4520    -0.3860     0.0320 ca         1 ST4       0.114600
      7 N3          -1.6990    -0.5430     0.6010 nu         1 ST4      -0.786600
      8 C7          -2.9060    -0.0310    -0.0340 c3         1 ST4       0.656900
      9 N1          -3.9930    -0.4290     0.8290 n8         1 ST4      -0.928800
     10 N2          -2.9830     1.3990    -0.2090 n8         1 ST4      -0.928800
     11 C4           0.6920    -0.4140     0.8500 ca         1 ST4      -0.054400
     12 N4           0.5340    -0.5870     2.2450 ns         1 ST4      -0.490100
     13 C8           0.8510     0.3600     3.1640 c          1 ST4       0.663100
     14 O4           1.2890     1.4540     2.8570 o          1 ST4      -0.591100
     15 CM4          0.6220    -0.0680     4.5920 c3         1 ST4      -0.185100
     16 C5           1.9540    -0.2810     0.2940 ca         1 ST4      -0.113000
     17 C6           2.1190    -0.1110    -1.0710 ca         1 ST4      -0.130000
     18 H2          -1.1110    -0.2240    -2.0170 ha         1 ST4       0.150000
     19 HN3         -1.7150    -0.3880     1.6010 hn         1 ST4       0.391800
     20 H3          -2.9630    -0.4710    -1.0370 h3         1 ST4       0.061700
     21 HN11        -4.8610    -0.0790     0.4460 hn         1 ST4       0.358550
     22 HN12        -4.0650    -1.4380     0.8510 hn         1 ST4       0.358550
     23 HN21        -2.7810     1.8670     0.6670 hn         1 ST4       0.358550
     24 HN22        -2.2900     1.7110    -0.8770 hn         1 ST4       0.358550
     25 HN4          0.1670    -1.4670     2.5770 hn         1 ST4       0.306500
     26 HM41         0.7700     0.7710     5.2660 hc         1 ST4       0.052033
     27 HM42        -0.3850    -0.4610     4.7330 hc         1 ST4       0.052033
     28 HM43         1.3210    -0.8600     4.8660 hc         1 ST4       0.052033
     29 H5           2.8180    -0.3180     0.9470 ha         1 ST4       0.115000
     30 H6           3.1100     0.0000    -1.4880 ha         1 ST4       0.151000
@<TRIPOS>BOND
     1     1     2 1   
     2     1     3 1   
     3     1     4 1   
     4     4     5 ar  
     5     4    17 ar  
     6     5     6 ar  
     7     5    18 1   
     8     6     7 1   
     9     6    11 ar  
    10     7     8 1   
    11     7    19 1   
    12     8     9 1   
    13     8    10 1   
    14     8    20 1   
    15     9    21 1   
    16     9    22 1   
    17    10    23 1   
    18    10    24 1   
    19    11    12 1   
    20    11    16 ar  
    21    12    13 1   
    22    12    25 1   
    23    13    14 2   
    24    13    15 1   
    25    15    26 1   
    26    15    27 1   
    27    15    28 1   
    28    16    17 ar  
    29    16    29 1   
    30    17    30 1   
@<TRIPOS>SUBSTRUCTURE
     1 ST4         1 TEMP              0 ****  ****    0 ROOT
