@<TRIPOS>MOLECULE
ST5
   29    29     1     0     0
SMALL
abcg2


@<TRIPOS>ATOM
      1 C            2.4010    -0.1180    -3.0160 c          1 ST5       0.714600
      2 O1           1.5520    -0.1010    -3.9270 o          1 ST5      -0.714000
      3 O2           3.6380    -0.0530    -3.1430 o          1 ST5      -0.714000
      4 C1           1.8710    -0.2320    -1.5910 ca         1 ST5      -0.121600
      5 C2           0.5040    -0.3170    -1.3550 ca         1 ST5      -0.063000
      6 C3          -0.0010    -0.4330    -0.0660 ca         1 ST5      -0.062000
      7 N3          -1.3800    -0.5830     0.1570 ns         1 ST5      -0.150000
      8 C7          -2.3120     0.3260    -0.2260 c          1 ST5       0.608100
      9 O3          -2.0890     1.2500    -0.9790 o          1 ST5      -0.531100
     10 CM3         -3.6730     0.0790     0.3960 c3         1 ST5       0.070600
     11 O5          -4.6260     0.8330    -0.2910 oh         1 ST5      -0.619000
     12 C4           0.8790    -0.4450     1.0200 ca         1 ST5      -0.119000
     13 N4           0.4010    -0.5610     2.3400 ns         1 ST5      -0.158000
     14 C8          -0.4080     0.3550     2.9370 c          1 ST5       0.586100
     15 O4          -0.8450     1.3280     2.3480 o          1 ST5      -0.576100
     16 CM4         -0.7630     0.0390     4.3670 c3         1 ST5      -0.182100
     17 C5           2.2480    -0.3830     0.7860 ca         1 ST5      -0.151000
     18 C6           2.7390    -0.2780    -0.5040 ca         1 ST5      -0.082000
     19 H2          -0.1760    -0.3260    -2.1940 ha         1 ST5       0.151000
     20 HN3         -1.6480    -1.2560     0.8610 hn         1 ST5       0.128000
     21 HM31        -3.8890    -0.9970     0.3750 h1         1 ST5       0.023700
     22 HM32        -3.5970     0.3600     1.4560 h1         1 ST5       0.023700
     23 HO3         -5.4580     0.7610     0.1850 ho         1 ST5       0.429000
     24 HN4          0.8440    -1.2500     2.9280 hn         1 ST5       0.136000
     25 HM41        -0.9840     0.9570     4.9060 hc         1 ST5       0.051367
     26 HM42        -1.6590    -0.5850     4.3840 hc         1 ST5       0.051367
     27 HM43         0.0260    -0.5000     4.8890 hc         1 ST5       0.051367
     28 H5           2.9280    -0.4020     1.6280 ha         1 ST5       0.087000
     29 H6           3.8070    -0.2250    -0.6670 ha         1 ST5       0.132000
@<TRIPOS>BOND
     1     1     2 1   
     2     1     3 1   
     3     1     4 1   
     4     4     5 ar  
     5     4    18 ar  
     6     5     6 ar  
     7     5    19 1   
     8     6     7 1   
     9     6    12 ar  
    10     7     8 1   
    11     7    20 1   
    12     8     9 2   
    13     8    10 1   
    14    10    11 1   
    15    10    21 1   
    16    10    22 1   
    17    11    23 1   
    18    12    13 1   
    19    12    17 ar  
    20    13    14 1   
    21    13    24 1   
    22    14    15 2   
    23    14    16 1   
    24    16    25 1   
    25    16    26 1   
    26    16    27 1   
    27    17    18 ar  
    28    17    28 1   
    29    18    29 1   
@<TRIPOS>SUBSTRUCTURE
     1 ST5         1 TEMP              0 ****  ****    0 ROOT
