@<TRIPOS>MOLECULE
ST5
   29    29     1     0     0
SMALL
No Charge or Current Charge


@<TRIPOS>ATOM
      1 C            2.4370    -0.1980    -3.0260 c          1 ST5       0.714600
      2 O1           1.6440    -0.0480    -3.9450 o          1 ST5      -0.714000
      3 O2           3.6420    -0.3070    -3.2040 o          1 ST5      -0.714000
      4 C1           1.9030    -0.2510    -1.6020 ca         1 ST5      -0.121600
      5 C2           0.5190    -0.1190    -1.3420 ca         1 ST5      -0.063000
      6 C3           0.0080    -0.1670    -0.0240 ca         1 ST5      -0.062000
      7 N3          -1.3920    -0.1080     0.2300 ns         1 ST5      -0.150000
      8 C7          -2.4580     0.3770    -0.5180 c          1 ST5       0.608100
      9 O3          -2.3350     0.9130    -1.6170 o          1 ST5      -0.531100
     10 CM3         -3.8360     0.1920     0.1900 c3         1 ST5       0.070600
     11 O5          -4.9780     0.6070    -0.6010 oh         1 ST5      -0.619000
     12 C4           0.9070    -0.3540     1.0580 ca         1 ST5      -0.119000
     13 N4           0.5000    -0.4280     2.4210 ns         1 ST5      -0.158000
     14 C8          -0.4070     0.3260     3.1560 c          1 ST5       0.586100
     15 O4          -1.0180     1.2920     2.7130 o          1 ST5      -0.576100
     16 CM4         -0.5770    -0.1340     4.6020 c3         1 ST5      -0.182100
     17 C5           2.2780    -0.5110     0.7970 ca         1 ST5      -0.151000
     18 C6           2.7760    -0.4510    -0.5120 ca         1 ST5      -0.082000
     19 H2          -0.1560    -0.0050    -2.1850 ha         1 ST5       0.151000
     20 HN3         -1.6570    -0.4770     1.1340 hn         1 ST5       0.128000
     21 HM31        -3.9280    -0.8690     0.4560 h1         1 ST5       0.023700
     22 HM32        -3.8000     0.7600     1.1290 h1         1 ST5       0.023700
     23 HO3         -5.7840     0.4510    -0.0590 ho         1 ST5       0.429000
     24 HN4          0.9730    -1.1480     2.9540 hn         1 ST5       0.136000
     25 HM41        -1.2890     0.4830     5.1620 hc         1 ST5       0.051367
     26 HM42        -0.8640    -1.1920     4.6090 hc         1 ST5       0.051367
     27 HM43         0.4060    -0.1580     5.0860 hc         1 ST5       0.051367
     28 H5           2.9720    -0.6680     1.6210 ha         1 ST5       0.087000
     29 H6           3.8450    -0.5670    -0.6770 ha         1 ST5       0.132000
@<TRIPOS>BOND
     1     1     2 1   
     2     1     3 1   
     3     1     4 1   
     4     4     5 ar  
     5     4    18 ar  
     6     5     6 ar  
     7     5    19 1   
     8     6     7 1   
     9     6    12 ar  
    10     7     8 1   
    11     7    20 1   
    12     8     9 2   
    13     8    10 1   
    14    10    11 1   
    15    10    21 1   
    16    10    22 1   
    17    11    23 1   
    18    12    13 1   
    19    12    17 ar  
    20    13    14 1   
    21    13    24 1   
    22    14    15 2   
    23    14    16 1   
    24    16    25 1   
    25    16    26 1   
    26    16    27 1   
    27    17    18 ar  
    28    17    28 1   
    29    18    29 1   
@<TRIPOS>SUBSTRUCTURE
     1 ST5         1 TEMP              0 ****  ****    0 ROOT
