@<TRIPOS>MOLECULE
ST6
   31    31     1     0     0
SMALL
No Charge or Current Charge


@<TRIPOS>ATOM
      1 C           49.7880   -19.9370   -22.6300 c          1 ST6       0.712600
      2 O1          50.1180   -20.3260   -23.7420 o          1 ST6      -0.698500
      3 O2          50.2480   -18.9270   -22.1160 o          1 ST6      -0.698500
      4 C1          48.7630   -20.7450   -21.8520 ca         1 ST6      -0.115600
      5 C2          48.1900   -21.9130   -22.4020 ca         1 ST6      -0.064000
      6 C3          47.2280   -22.6650   -21.6970 ca         1 ST6      -0.122000
      7 N3          46.6680   -23.7850   -22.3730 ns         1 ST6      -0.080000
      8 C7          45.3510   -24.2100   -22.4820 c          1 ST6       0.580100
      9 O3          44.3880   -23.5930   -22.0320 o          1 ST6      -0.593100
     10 CM3         45.1730   -25.5470   -23.2520 c3         1 ST6      -0.020400
     11 N1          43.6980   -25.9580   -23.4630 nz         1 ST6      -0.953000
     12 C4          46.8630   -22.2700   -20.3810 ca         1 ST6      -0.068000
     13 N4          45.9730   -22.9950   -19.5430 ns         1 ST6      -0.159000
     14 C8          45.8500   -24.3560   -19.3050 c          1 ST6       0.590100
     15 O4          46.5910   -25.2070   -19.7850 o          1 ST6      -0.598100
     16 CM4         44.7110   -24.7290   -18.3600 c3         1 ST6      -0.185100
     17 C5          47.4130   -21.0930   -19.8450 ca         1 ST6      -0.143000
     18 C6          48.3510   -20.3380   -20.5660 ca         1 ST6      -0.050000
     19 H2          48.4780   -22.2310   -23.4030 ha         1 ST6       0.137000
     20 HN3         47.3430   -24.3690   -22.8480 hn         1 ST6       0.170000
     21 HM31        45.6930   -26.3200   -22.6760 hx         1 ST6       0.114700
     22 HM32        45.6670   -25.4330   -24.2220 hx         1 ST6       0.114700
     23 HN31        43.1750   -26.0690   -22.5780 hn         1 ST6       0.515667
     24 HN32        43.5780   -26.8510   -23.9680 hn         1 ST6       0.515667
     25 HN33        43.1540   -25.2620   -24.0000 hn         1 ST6       0.515667
     26 HN4         45.3250   -22.4170   -19.0230 hn         1 ST6       0.152000
     27 HM41        44.6460   -25.8080   -18.1800 hc         1 ST6       0.057700
     28 HM42        44.8240   -24.1680   -17.4250 hc         1 ST6       0.057700
     29 HM43        43.7720   -24.3270   -18.7590 hc         1 ST6       0.057700
     30 H5          47.1300   -20.7690   -18.8450 ha         1 ST6       0.106000
     31 H6          48.7660   -19.4390   -20.1140 ha         1 ST6       0.149000
@<TRIPOS>BOND
     1     1     2 1   
     2     1     3 1   
     3     1     4 1   
     4     4     5 ar  
     5     4    18 ar  
     6     5     6 ar  
     7     5    19 1   
     8     6     7 1   
     9     6    12 ar  
    10     7     8 1   
    11     7    20 1   
    12     8     9 2   
    13     8    10 1   
    14    10    11 1   
    15    10    21 1   
    16    10    22 1   
    17    11    23 1   
    18    11    24 1   
    19    11    25 1   
    20    12    13 1   
    21    12    17 ar  
    22    13    14 1   
    23    13    26 1   
    24    14    15 2   
    25    14    16 1   
    26    16    27 1   
    27    16    28 1   
    28    16    29 1   
    29    17    18 ar  
    30    17    30 1   
    31    18    31 1   
@<TRIPOS>SUBSTRUCTURE
     1 ST6         1 TEMP              0 ****  ****    0 ROOT
