@<TRIPOS>MOLECULE
ST6
   31    31     1     0     0
SMALL
bcc


@<TRIPOS>ATOM
      1 C           49.5510   -20.0090   -22.7610 c          1 ST6       0.923200
      2 O1          49.8710   -20.4960   -23.8620 o          1 ST6      -0.803800
      3 O2          49.9420   -18.9320   -22.2740 o          1 ST6      -0.803800
      4 C1          48.5760   -20.8210   -21.9160 ca         1 ST6      -0.115600
      5 C2          48.0760   -22.0340   -22.3790 ca         1 ST6      -0.082000
      6 C3          47.1880   -22.7810   -21.6220 ca         1 ST6      -0.029400
      7 N3          46.6670   -23.9880   -22.1460 ns         1 ST6      -0.406100
      8 C7          45.3980   -24.0990   -22.5560 c          1 ST6       0.647100
      9 O3          44.5930   -23.1870   -22.5930 o          1 ST6      -0.593100
     10 CM3         44.9980   -25.5080   -22.9550 c3         1 ST6       0.007800
     11 N1          43.8020   -25.4530   -23.8150 nz         1 ST6      -0.815600
     12 C4          46.7950   -22.3360   -20.3590 ca         1 ST6       0.024600
     13 N4          45.9110   -23.0860   -19.5660 ns         1 ST6      -0.485100
     14 C8          46.1700   -24.3450   -19.1260 c          1 ST6       0.657100
     15 O4          47.1850   -24.9490   -19.4240 o          1 ST6      -0.598100
     16 CM4         45.0870   -24.9250   -18.2540 c3         1 ST6      -0.185100
     17 C5          47.2770   -21.1150   -19.9000 ca         1 ST6      -0.161000
     18 C6          48.1490   -20.3660   -20.6730 ca         1 ST6      -0.068000
     19 H2          48.3690   -22.3990   -23.3550 ha         1 ST6       0.155000
     20 HN3         47.2710   -24.7960   -22.1750 hn         1 ST6       0.336500
     21 HM31        44.7420   -26.0870   -22.0680 hx         1 ST6       0.114700
     22 HM32        45.7820   -26.0340   -23.4950 hx         1 ST6       0.114700
     23 HN31        43.0660   -24.8800   -23.3990 hn         1 ST6       0.460467
     24 HN32        43.4160   -26.3840   -23.9680 hn         1 ST6       0.460467
     25 HN33        44.0080   -25.0590   -24.7330 hn         1 ST6       0.460467
     26 HN4         45.1230   -22.5980   -19.1680 hn         1 ST6       0.318500
     27 HM41        45.3640   -25.9210   -17.9190 hc         1 ST6       0.057700
     28 HM42        44.9100   -24.2960   -17.3810 hc         1 ST6       0.057700
     29 HM43        44.1460   -24.9870   -18.8030 hc         1 ST6       0.057700
     30 H5          46.9710   -20.7610   -18.9240 ha         1 ST6       0.124000
     31 H6          48.5160   -19.4210   -20.2970 ha         1 ST6       0.167000
@<TRIPOS>BOND
     1     1     2 1   
     2     1     3 1   
     3     1     4 1   
     4     4     5 ar  
     5     4    18 ar  
     6     5     6 ar  
     7     5    19 1   
     8     6     7 1   
     9     6    12 ar  
    10     7     8 1   
    11     7    20 1   
    12     8     9 2   
    13     8    10 1   
    14    10    11 1   
    15    10    21 1   
    16    10    22 1   
    17    11    23 1   
    18    11    24 1   
    19    11    25 1   
    20    12    13 1   
    21    12    17 ar  
    22    13    14 1   
    23    13    26 1   
    24    14    15 2   
    25    14    16 1   
    26    16    27 1   
    27    16    28 1   
    28    16    29 1   
    29    17    18 ar  
    30    17    30 1   
    31    18    31 1   
@<TRIPOS>SUBSTRUCTURE
     1 ST6         1 TEMP              0 ****  ****    0 ROOT
