@<TRIPOS>MOLECULE
ST7
   93    97     1     0     0
SMALL
abcg2


@<TRIPOS>ATOM
      1 C9          12.1900     1.2740     0.9130 c3         1 ST7       0.109300
      2 N6          10.7760     1.4980     0.7330 ns         1 ST7      -0.533900
      3 C8           9.8600     0.7850     1.4240 c          1 ST7       0.669100
      4 O3          10.1660    -0.0900     2.2140 o          1 ST7      -0.578100
      5 N4           8.5570     1.1290     1.1070 ns         1 ST7      -0.470400
      6 C7           7.4020     0.7050     1.7580 c2         1 ST7       0.680800
      7 N5           7.4230     0.3230     2.9720 n2         1 ST7      -0.823100
      8 N3           6.3030     0.8400     0.9490 nu         1 ST7      -0.959400
      9 C6           4.9970     0.4180     1.4050 c3         1 ST7       0.209800
     10 C5           3.9360     0.7510     0.3680 c3         1 ST7      -0.085400
     11 C4           2.5700     0.2480     0.8170 c3         1 ST7      -0.088400
     12 C2           1.5070     0.3420    -0.2780 c3         1 ST7       0.041700
     13 C1           0.2590    -0.4250     0.1750 c          1 ST7       0.593100
     14 O2          -0.5290     0.1190     0.9310 o          1 ST7      -0.604100
     15 N1           0.1270    -1.7100    -0.2260 n          1 ST7      -0.396800
     16 C12          0.9320    -2.3170    -1.2780 c3         1 ST7       0.140800
     17 C13          2.3390    -2.6770    -0.8660 ca         1 ST7      -0.116800
     18 C20          2.5940    -3.3280     0.3400 ca         1 ST7      -0.102000
     19 C21          3.8940    -3.6320     0.7150 ca         1 ST7      -0.112000
     20 C22          4.9590    -3.2930    -0.1120 ca         1 ST7      -0.104000
     21 C23          4.7130    -2.6590    -1.3200 ca         1 ST7      -0.112000
     22 C24          3.4100    -2.3520    -1.6920 ca         1 ST7      -0.102000
     23 C11         -0.9500    -2.5250     0.3120 c3         1 ST7       0.140800
     24 C14         -2.0610    -2.7770    -0.6750 ca         1 ST7      -0.116800
     25 C15         -2.5950    -1.7410    -1.4380 ca         1 ST7      -0.102000
     26 C16         -3.6470    -1.9770    -2.3090 ca         1 ST7      -0.112000
     27 C17         -4.1810    -3.2550    -2.4330 ca         1 ST7      -0.104000
     28 C18         -3.6470    -4.2950    -1.6860 ca         1 ST7      -0.112000
     29 C19         -2.5920    -4.0560    -0.8140 ca         1 ST7      -0.102000
     30 N2           1.1650     1.7240    -0.5110 ns         1 ST7      -0.485900
     31 C3           0.2940     2.0650    -1.4660 c          1 ST7       0.583100
     32 O1          -0.1800     1.2730    -2.2620 o          1 ST7      -0.582100
     33 C10         -0.0590     3.5460    -1.4820 c3         1 ST7      -0.013400
     34 N7          -1.2130     3.8070    -2.2980 na         1 ST7       0.138800
     35 N8          -1.1240     4.6110    -3.3470 nc         1 ST7      -0.200800
     36 N9          -2.2920     4.6980    -3.8790 nd         1 ST7      -0.353000
     37 C25         -3.1540     3.9330    -3.1800 cd         1 ST7       0.214900
     38 C26         -2.4680     3.3430    -2.1500 cc         1 ST7      -0.177300
     39 C27         -2.9010     2.3830    -1.1020 c3         1 ST7       0.237900
     40 O4          -4.1610     2.8270    -0.6300 os         1 ST7      -0.306000
     41 N11         -4.7690     1.8150     0.0420 n2         1 ST7      -0.319700
     42 C28         -5.8440     2.1830     0.6080 ce         1 ST7       0.418800
     43 C29         -6.6910     1.2760     1.3820 ca         1 ST7      -0.082900
     44 C30         -6.5210    -0.1370     1.5240 ca         1 ST7      -0.051000
     45 C34         -5.5000    -0.8950     0.9050 ca         1 ST7      -0.085000
     46 C35         -5.4230    -2.2510     1.0870 ca         1 ST7      -0.108000
     47 C36         -6.3540    -2.9220     1.9000 ca         1 ST7      -0.101000
     48 C37         -7.3530    -2.2200     2.5140 ca         1 ST7      -0.086000
     49 C31         -7.4650    -0.8220     2.3390 ca         1 ST7       0.258000
     50 N10         -8.4910    -0.2010     2.9710 nb         1 ST7      -0.649000
     51 C32         -8.6210     1.0860     2.8140 ca         1 ST7       0.344900
     52 C33         -7.7520     1.8630     2.0300 ca         1 ST7      -0.152000
     53 H1          12.7250     1.9120     0.2160 h1         1 ST7       0.040367
     54 H2          12.5260     1.5150     1.9230 h1         1 ST7       0.040367
     55 H3          12.4610     0.2400     0.7000 h1         1 ST7       0.040367
     56 H4          10.4930     2.3010     0.1980 hn         1 ST7       0.308500
     57 H5           8.4190     1.7420     0.3190 hn         1 ST7       0.312500
     58 H6           6.5110    -0.0030     3.2690 hn         1 ST7       0.386400
     59 H7           6.4690     0.7140    -0.0390 hn         1 ST7       0.466000
     60 H8           4.9700    -0.6600     1.6120 h1         1 ST7       0.043200
     61 H9           4.7630     0.9280     2.3440 h1         1 ST7       0.043200
     62 H10          3.9230     1.8290     0.1890 hc         1 ST7       0.050700
     63 H11          4.1980     0.2720    -0.5800 hc         1 ST7       0.050700
     64 H12          2.6640    -0.7970     1.1140 hc         1 ST7       0.064700
     65 H13          2.2280     0.7900     1.7040 hc         1 ST7       0.064700
     66 H14          1.9230    -0.0670    -1.1990 h1         1 ST7       0.086700
     67 H15          0.4050    -3.2210    -1.5890 h1         1 ST7       0.068450
     68 H16          0.9480    -1.6770    -2.1620 h1         1 ST7       0.068450
     69 H17          1.7780    -3.5880     1.0030 ha         1 ST7       0.117000
     70 H18          4.0780    -4.1330     1.6570 ha         1 ST7       0.116750
     71 H19          5.9730    -3.5240     0.1870 ha         1 ST7       0.118500
     72 H20          5.5350    -2.3910    -1.9720 ha         1 ST7       0.116750
     73 H21          3.2260    -1.8410    -2.6300 ha         1 ST7       0.117000
     74 H22         -0.5360    -3.4810     0.6430 h1         1 ST7       0.068450
     75 H23         -1.3440    -2.0300     1.1980 h1         1 ST7       0.068450
     76 H24         -2.1780    -0.7450    -1.3580 ha         1 ST7       0.117000
     77 H25         -4.0560    -1.1620    -2.8930 ha         1 ST7       0.116750
     78 H26         -5.0040    -3.4360    -3.1110 ha         1 ST7       0.118500
     79 H27         -4.0490    -5.2960    -1.7820 ha         1 ST7       0.116750
     80 H28         -2.1760    -4.8720    -0.2360 ha         1 ST7       0.117000
     81 H29          1.4060     2.4030     0.1960 hn         1 ST7       0.325500
     82 H30         -0.2290     3.9170    -0.4700 h1         1 ST7       0.092200
     83 H31          0.7710     4.1160    -1.9000 h1         1 ST7       0.092200
     84 H32         -4.1960     3.8460    -3.4420 h4         1 ST7       0.055100
     85 H33         -2.9970     1.3830    -1.5320 h1         1 ST7       0.065700
     86 H34         -2.1820     2.3190    -0.2800 h1         1 ST7       0.065700
     87 H35         -6.1850     3.2160     0.5480 h4         1 ST7       0.008800
     88 H36         -4.7700    -0.4050     0.2820 ha         1 ST7       0.141000
     89 H37         -4.6380    -2.8070     0.5910 ha         1 ST7       0.123000
     90 H38         -6.2770    -3.9930     2.0380 ha         1 ST7       0.116000
     91 H39         -8.0840    -2.7130     3.1410 ha         1 ST7       0.130000
     92 H40         -9.4490     1.5660     3.3240 h4         1 ST7       0.021100
     93 H41         -7.9280     2.9280     1.9480 ha         1 ST7       0.122000
@<TRIPOS>BOND
     1     1     2 1   
     2     1    53 1   
     3     1    54 1   
     4     1    55 1   
     5     2     3 1   
     6     2    56 1   
     7     3     4 2   
     8     3     5 1   
     9     5     6 1   
    10     5    57 1   
    11     6     7 2   
    12     6     8 1   
    13     7    58 1   
    14     8     9 1   
    15     8    59 1   
    16     9    10 1   
    17     9    60 1   
    18     9    61 1   
    19    10    11 1   
    20    10    62 1   
    21    10    63 1   
    22    11    12 1   
    23    11    64 1   
    24    11    65 1   
    25    12    13 1   
    26    12    30 1   
    27    12    66 1   
    28    13    14 2   
    29    13    15 1   
    30    15    16 1   
    31    15    23 1   
    32    16    17 1   
    33    16    67 1   
    34    16    68 1   
    35    17    18 ar  
    36    17    22 ar  
    37    18    19 ar  
    38    18    69 1   
    39    19    20 ar  
    40    19    70 1   
    41    20    21 ar  
    42    20    71 1   
    43    21    22 ar  
    44    21    72 1   
    45    22    73 1   
    46    23    24 1   
    47    23    74 1   
    48    23    75 1   
    49    24    25 ar  
    50    24    29 ar  
    51    25    26 ar  
    52    25    76 1   
    53    26    27 ar  
    54    26    77 1   
    55    27    28 ar  
    56    27    78 1   
    57    28    29 ar  
    58    28    79 1   
    59    29    80 1   
    60    30    31 1   
    61    30    81 1   
    62    31    32 2   
    63    31    33 1   
    64    33    34 1   
    65    33    82 1   
    66    33    83 1   
    67    34    35 1   
    68    34    38 1   
    69    35    36 2   
    70    36    37 1   
    71    37    38 2   
    72    37    84 1   
    73    38    39 1   
    74    39    40 1   
    75    39    85 1   
    76    39    86 1   
    77    40    41 1   
    78    41    42 2   
    79    42    43 1   
    80    42    87 1   
    81    43    44 ar  
    82    43    52 ar  
    83    44    45 ar  
    84    44    49 ar  
    85    45    46 ar  
    86    45    88 1   
    87    46    47 ar  
    88    46    89 1   
    89    47    48 ar  
    90    47    90 1   
    91    48    49 ar  
    92    48    91 1   
    93    49    50 ar  
    94    50    51 ar  
    95    51    52 ar  
    96    51    92 1   
    97    52    93 1   
@<TRIPOS>SUBSTRUCTURE
     1 ST7         1 TEMP              0 ****  ****    0 ROOT
