@<TRIPOS>MOLECULE
ST7
   93    97     1     0     0
SMALL
No Charge or Current Charge


@<TRIPOS>ATOM
      1 C9          11.8550     1.5640     0.3300 c3         1 ST7       0.109300
      2 N6          10.4150     1.7470     0.5220 ns         1 ST7      -0.533900
      3 C8           9.6220     0.8870     1.2360 c          1 ST7       0.669100
      4 O3          10.0520    -0.1210     1.7720 o          1 ST7      -0.578100
      5 N4           8.3200     1.2760     1.2560 ns         1 ST7      -0.470400
      6 C7           7.2980     0.6660     1.9120 c2         1 ST7       0.680800
      7 N5           7.2910     0.3110     3.1200 n2         1 ST7      -0.823100
      8 N3           6.1420     0.8500     1.2300 nu         1 ST7      -0.959400
      9 C6           4.8220     0.3440     1.6390 c3         1 ST7       0.209800
     10 C5           3.7670     0.6690     0.5640 c3         1 ST7      -0.085400
     11 C4           2.3550     0.1580     0.9370 c3         1 ST7      -0.088400
     12 C2           1.3120     0.3330    -0.1950 c3         1 ST7       0.041700
     13 C1          -0.0170    -0.4350     0.1140 c          1 ST7       0.593100
     14 O2          -0.9660     0.1590     0.6140 o          1 ST7      -0.604100
     15 N1          -0.0950    -1.8330    -0.1240 n          1 ST7      -0.396800
     16 C12          0.8000    -2.5130    -1.0960 c3         1 ST7       0.140800
     17 C13          2.1760    -2.8730    -0.5490 ca         1 ST7      -0.116800
     18 C20          2.2990    -3.6110     0.6450 ca         1 ST7      -0.102000
     19 C21          3.5690    -3.9210     1.1600 ca         1 ST7      -0.112000
     20 C22          4.7260    -3.5020     0.4810 ca         1 ST7      -0.104000
     21 C23          4.6100    -2.7780    -0.7170 ca         1 ST7      -0.112000
     22 C24          3.3400    -2.4670    -1.2330 ca         1 ST7      -0.102000
     23 C11         -1.3020    -2.5930     0.2860 c3         1 ST7       0.140800
     24 C14         -2.2670    -2.8690    -0.8640 ca         1 ST7      -0.116800
     25 C15         -2.8690    -1.8030    -1.5610 ca         1 ST7      -0.102000
     26 C16         -3.7570    -2.0570    -2.6210 ca         1 ST7      -0.112000
     27 C17         -4.0500    -3.3800    -2.9900 ca         1 ST7      -0.104000
     28 C18         -3.4530    -4.4480    -2.3000 ca         1 ST7      -0.112000
     29 C19         -2.5640    -4.1940    -1.2410 ca         1 ST7      -0.102000
     30 N2           1.0310     1.7690    -0.4180 ns         1 ST7      -0.485900
     31 C3           0.6460     2.3010    -1.6300 c          1 ST7       0.583100
     32 O1           0.5860     1.6150    -2.6420 o          1 ST7      -0.582100
     33 C10          0.2710     3.7820    -1.6020 c3         1 ST7      -0.013400
     34 N7          -0.9210     4.0880    -2.4090 na         1 ST7       0.138800
     35 N8          -0.8540     5.0010    -3.4190 nc         1 ST7      -0.200800
     36 N9          -2.0480     5.0710    -3.9410 nd         1 ST7      -0.353000
     37 C25         -2.8910     4.2100    -3.2680 cd         1 ST7       0.214900
     38 C26         -2.1930     3.5760    -2.2780 cc         1 ST7      -0.177300
     39 C27         -2.6500     2.5400    -1.2850 c3         1 ST7       0.237900
     40 O4          -4.0400     2.7770    -0.9950 os         1 ST7      -0.306000
     41 N11         -4.5210     1.8110    -0.0830 n2         1 ST7      -0.319700
     42 C28         -5.7510     2.0020     0.2860 ce         1 ST7       0.418800
     43 C29         -6.3880     1.2010     1.3810 ca         1 ST7      -0.082900
     44 C30         -6.2810    -0.2110     1.5290 ca         1 ST7      -0.051000
     45 C34         -5.6460    -1.0250     0.5590 ca         1 ST7      -0.085000
     46 C35         -5.5630    -2.4150     0.7330 ca         1 ST7      -0.108000
     47 C36         -6.1140    -3.0150     1.8710 ca         1 ST7      -0.101000
     48 C37         -6.7650    -2.2230     2.8290 ca         1 ST7      -0.086000
     49 C31         -6.8680    -0.8280     2.6730 ca         1 ST7       0.258000
     50 N10         -7.5300    -0.1200     3.6180 nb         1 ST7      -0.649000
     51 C32         -7.6430     1.2150     3.4650 ca         1 ST7       0.344900
     52 C33         -7.0940     1.9040     2.3770 ca         1 ST7      -0.152000
     53 H1          12.2530     2.3890    -0.2740 h1         1 ST7       0.040367
     54 H2          12.3600     1.5530     1.3050 h1         1 ST7       0.040367
     55 H3          12.0420     0.6140    -0.1880 h1         1 ST7       0.040367
     56 H4           9.9740     2.5590     0.1090 hn         1 ST7       0.308500
     57 H5           8.0840     2.1060     0.7430 hn         1 ST7       0.312500
     58 H6           6.3220     0.0630     3.3360 hn         1 ST7       0.386400
     59 H7           6.2630     1.0310     0.2370 hn         1 ST7       0.466000
     60 H8           4.8640    -0.7450     1.7810 h1         1 ST7       0.043200
     61 H9           4.5190     0.8020     2.5910 h1         1 ST7       0.043200
     62 H10          3.7330     1.7540     0.4080 hc         1 ST7       0.050700
     63 H11          4.0750     0.2170    -0.3860 hc         1 ST7       0.050700
     64 H12          2.4250    -0.9000     1.2090 hc         1 ST7       0.064700
     65 H13          2.0040     0.6760     1.8390 hc         1 ST7       0.064700
     66 H14          1.7330    -0.0780    -1.1190 h1         1 ST7       0.086700
     67 H15          0.3240    -3.4430    -1.4360 h1         1 ST7       0.068450
     68 H16          0.9010    -1.8830    -1.9890 h1         1 ST7       0.068450
     69 H17          1.4100    -3.9370     1.1810 ha         1 ST7       0.117000
     70 H18          3.6570    -4.4850     2.0860 ha         1 ST7       0.116750
     71 H19          5.7090    -3.7400     0.8810 ha         1 ST7       0.118500
     72 H20          5.5050    -2.4550    -1.2440 ha         1 ST7       0.116750
     73 H21          3.2640    -1.9030    -2.1600 ha         1 ST7       0.117000
     74 H22         -0.9740    -3.5460     0.7210 h1         1 ST7       0.068450
     75 H23         -1.8380    -2.0610     1.0820 h1         1 ST7       0.068450
     76 H24         -2.6540    -0.7770    -1.2790 ha         1 ST7       0.117000
     77 H25         -4.2190    -1.2280    -3.1530 ha         1 ST7       0.116750
     78 H26         -4.7380    -3.5770    -3.8100 ha         1 ST7       0.118500
     79 H27         -3.6780    -5.4740    -2.5860 ha         1 ST7       0.116750
     80 H28         -2.1070    -5.0300    -0.7140 ha         1 ST7       0.117000
     81 H29          1.0380     2.3920     0.3830 hn         1 ST7       0.325500
     82 H30          0.0750     4.0840    -0.5670 h1         1 ST7       0.092200
     83 H31          1.1300     4.3540    -1.9690 h1         1 ST7       0.092200
     84 H32         -3.9350     4.1000    -3.5340 h4         1 ST7       0.055100
     85 H33         -2.5060     1.5420    -1.7170 h1         1 ST7       0.065700
     86 H34         -2.0500     2.6100    -0.3690 h1         1 ST7       0.065700
     87 H35         -6.2790     2.9140    -0.0020 h4         1 ST7       0.008800
     88 H36         -5.2280    -0.6020    -0.3490 ha         1 ST7       0.141000
     89 H37         -5.0760    -3.0300    -0.0210 ha         1 ST7       0.123000
     90 H38         -6.0490    -4.0930     2.0060 ha         1 ST7       0.116000
     91 H39         -7.2040    -2.6960     3.7030 ha         1 ST7       0.130000
     92 H40         -8.1840     1.7500     4.2460 h4         1 ST7       0.021100
     93 H41         -7.2030     2.9840     2.3240 ha         1 ST7       0.122000
@<TRIPOS>BOND
     1     1     2 1   
     2     1    53 1   
     3     1    54 1   
     4     1    55 1   
     5     2     3 1   
     6     2    56 1   
     7     3     4 2   
     8     3     5 1   
     9     5     6 1   
    10     5    57 1   
    11     6     7 2   
    12     6     8 1   
    13     7    58 1   
    14     8     9 1   
    15     8    59 1   
    16     9    10 1   
    17     9    60 1   
    18     9    61 1   
    19    10    11 1   
    20    10    62 1   
    21    10    63 1   
    22    11    12 1   
    23    11    64 1   
    24    11    65 1   
    25    12    13 1   
    26    12    30 1   
    27    12    66 1   
    28    13    14 2   
    29    13    15 1   
    30    15    16 1   
    31    15    23 1   
    32    16    17 1   
    33    16    67 1   
    34    16    68 1   
    35    17    18 ar  
    36    17    22 ar  
    37    18    19 ar  
    38    18    69 1   
    39    19    20 ar  
    40    19    70 1   
    41    20    21 ar  
    42    20    71 1   
    43    21    22 ar  
    44    21    72 1   
    45    22    73 1   
    46    23    24 1   
    47    23    74 1   
    48    23    75 1   
    49    24    25 ar  
    50    24    29 ar  
    51    25    26 ar  
    52    25    76 1   
    53    26    27 ar  
    54    26    77 1   
    55    27    28 ar  
    56    27    78 1   
    57    28    29 ar  
    58    28    79 1   
    59    29    80 1   
    60    30    31 1   
    61    30    81 1   
    62    31    32 2   
    63    31    33 1   
    64    33    34 1   
    65    33    82 1   
    66    33    83 1   
    67    34    35 1   
    68    34    38 1   
    69    35    36 2   
    70    36    37 1   
    71    37    38 2   
    72    37    84 1   
    73    38    39 1   
    74    39    40 1   
    75    39    85 1   
    76    39    86 1   
    77    40    41 1   
    78    41    42 2   
    79    42    43 1   
    80    42    87 1   
    81    43    44 ar  
    82    43    52 ar  
    83    44    45 ar  
    84    44    49 ar  
    85    45    46 ar  
    86    45    88 1   
    87    46    47 ar  
    88    46    89 1   
    89    47    48 ar  
    90    47    90 1   
    91    48    49 ar  
    92    48    91 1   
    93    49    50 ar  
    94    50    51 ar  
    95    51    52 ar  
    96    51    92 1   
    97    52    93 1   
@<TRIPOS>SUBSTRUCTURE
     1 ST7         1 TEMP              0 ****  ****    0 ROOT
