@<TRIPOS>MOLECULE
ST8
   49    51     1     0     0
SMALL
abcg2


@<TRIPOS>ATOM
      1 C2           7.9520    43.9230    50.2510 ca         1 ST8       0.498900
      2 C10          5.0060    45.3660    52.5710 c3         1 ST8       0.172600
      3 C11          4.1630    46.1040    53.5890 c6         1 ST8      -0.070700
      4 C12          4.6580    45.8820    55.0230 c6         1 ST8      -0.070400
      5 C13          3.7590    46.5800    56.0450 c6         1 ST8      -0.072900
      6 C14          2.3000    46.1470    55.8970 c6         1 ST8      -0.076400
      7 C15          1.8000    46.3660    54.4680 c6         1 ST8      -0.072900
      8 C16          2.6990    45.6690    53.4460 c6         1 ST8      -0.070400
      9 C19          5.4630    40.5830    47.6390 ca         1 ST8      -0.043500
     10 C20          4.2350    40.7590    48.2800 ca         1 ST8      -0.174600
     11 C21          4.1570    41.6950    49.3120 ca         1 ST8      -0.043500
     12 C22          5.2600    42.4410    49.7020 ca         1 ST8      -0.156500
     13 N25          2.0180    39.8430    48.6490 nt         1 ST8      -0.605000
     14 N3           6.9640    44.4130    51.0240 nb         1 ST8      -0.379000
     15 C4           7.2860    45.3670    51.8680 ca         1 ST8       0.487300
     16 O6           6.3600    45.8890    52.6460 os         1 ST8      -0.426300
     17 C5           8.6190    45.8790    51.9870 ca         1 ST8      -0.274600
     18 N7           8.8410    46.8530    52.9000 ne         1 ST8       0.057900
     19 C6           9.5860    45.2740    51.1000 ca         1 ST8       0.474900
     20 N1           9.2330    44.3090    50.2480 nb         1 ST8      -0.378000
     21 N2           7.6680    42.9370    49.3650 nu         1 ST8      -0.913900
     22 C17          6.4880    42.2520    49.0590 ca         1 ST8       0.331000
     23 C18          6.5730    41.3080    48.0240 ca         1 ST8      -0.156500
     24 O8          10.0060    47.3120    53.0160 o          1 ST8      -0.327300
     25 O24          3.0620    39.4300    46.6920 o          1 ST8      -0.610100
     26 H101         5.0380    44.2960    52.7800 h1         1 ST8       0.054700
     27 H102         4.6350    45.5150    51.5570 h1         1 ST8       0.054700
     28 H11          4.2240    47.1750    53.3620 hc         1 ST8       0.066700
     29 H121         4.6680    44.8040    55.2260 hc         1 ST8       0.043450
     30 H122         5.6860    46.2340    55.1220 hc         1 ST8       0.043450
     31 H131         4.1160    46.3730    57.0570 hc         1 ST8       0.042200
     32 H132         3.8280    47.6650    55.9020 hc         1 ST8       0.042200
     33 H141         2.2140    45.0830    56.1490 hc         1 ST8       0.039700
     34 H142         1.6690    46.6900    56.6050 hc         1 ST8       0.039700
     35 H151         1.7830    47.4410    54.2550 hc         1 ST8       0.042200
     36 H152         0.7730    46.0070    54.3650 hc         1 ST8       0.042200
     37 H161         2.3490    45.8750    52.4310 hc         1 ST8       0.043450
     38 H162         2.6360    44.5830    53.5900 hc         1 ST8       0.043450
     39 H19          5.5400    39.8650    46.8340 ha         1 ST8       0.126500
     40 H21          3.2190    41.8800    49.8200 ha         1 ST8       0.126500
     41 H22          5.1710    43.1660    50.4920 ha         1 ST8       0.135000
     42 H251         2.0530    40.1570    49.6030 hn         1 ST8       0.315000
     43 H252         1.2260    39.2890    48.3610 hn         1 ST8       0.315000
     44 H9N1        11.5160    45.2290    50.4920 hn         1 ST8       0.528000
     45 H9N2        11.1220    46.3950    51.7640 hn         1 ST8       0.528000
     46 H2           8.4770    42.6570    48.8280 hn         1 ST8       0.516000
     47 H18          7.5210    41.1510    47.5240 ha         1 ST8       0.135000
     48 N9          10.8540    45.6680    51.1140 nv         1 ST8      -1.037900
     49 C23          3.0670    39.9570    47.8080 c          1 ST8       0.615700
@<TRIPOS>BOND
     1     1    14 ar  
     2     1    20 ar  
     3     1    21 1   
     4     2     3 1   
     5     2    16 1   
     6     2    26 1   
     7     2    27 1   
     8     3     4 1   
     9     3     8 1   
    10     3    28 1   
    11     4     5 1   
    12     4    29 1   
    13     4    30 1   
    14     5     6 1   
    15     5    31 1   
    16     5    32 1   
    17     6     7 1   
    18     6    33 1   
    19     6    34 1   
    20     7     8 1   
    21     7    35 1   
    22     7    36 1   
    23     8    37 1   
    24     8    38 1   
    25     9    10 ar  
    26     9    23 ar  
    27     9    39 1   
    28    10    11 ar  
    29    10    49 1   
    30    11    12 ar  
    31    11    40 1   
    32    12    22 ar  
    33    12    41 1   
    34    13    42 1   
    35    13    43 1   
    36    13    49 1   
    37    14    15 ar  
    38    15    16 1   
    39    15    17 ar  
    40    17    18 1   
    41    17    19 ar  
    42    18    24 2   
    43    19    20 ar  
    44    19    48 1   
    45    21    22 1   
    46    21    46 1   
    47    22    23 ar  
    48    23    47 1   
    49    25    49 2   
    50    44    48 1   
    51    45    48 1   
@<TRIPOS>SUBSTRUCTURE
     1 ST8         1 TEMP              0 ****  ****    0 ROOT
