@<TRIPOS>MOLECULE
ST8
   49    51     1     0     0
SMALL
No Charge or Current Charge


@<TRIPOS>ATOM
      1 C2           7.9800    43.9240    50.1740 ca         1 ST8       0.498900
      2 C10          4.9710    45.4390    52.5680 c3         1 ST8       0.172600
      3 C11          4.1190    46.2210    53.6090 c6         1 ST8      -0.070700
      4 C12          4.6130    45.9870    55.0680 c6         1 ST8      -0.070400
      5 C13          3.7490    46.7640    56.0920 c6         1 ST8      -0.072900
      6 C14          2.2510    46.4000    55.9540 c6         1 ST8      -0.076400
      7 C15          1.7510    46.6350    54.5080 c6         1 ST8      -0.072900
      8 C16          2.6130    45.8560    53.4830 c6         1 ST8      -0.070400
      9 C19          5.2940    40.9550    47.2430 ca         1 ST8      -0.043500
     10 C20          4.3050    40.6240    48.1960 ca         1 ST8      -0.174600
     11 C21          4.4680    41.0870    49.5230 ca         1 ST8      -0.043500
     12 C22          5.5860    41.8640    49.8760 ca         1 ST8      -0.156500
     13 N25          2.1840    39.4850    48.7050 nt         1 ST8      -0.605000
     14 N3           6.9850    44.4020    50.9250 nb         1 ST8      -0.379000
     15 C4           7.3050    45.3620    51.8110 ca         1 ST8       0.487300
     16 O6           6.3320    45.9050    52.6240 os         1 ST8      -0.426300
     17 C5           8.6220    45.8370    51.9260 ca         1 ST8      -0.274600
     18 N7           8.9590    46.8470    52.8470 ne         1 ST8       0.057900
     19 C6           9.5620    45.2650    51.0640 ca         1 ST8       0.474900
     20 N1           9.2550    44.3130    50.1850 nb         1 ST8      -0.378000
     21 N2           7.6890    42.9620    49.2310 nu         1 ST8      -0.913900
     22 C17          6.5570    42.2030    48.9170 ca         1 ST8       0.331000
     23 C18          6.4080    41.7310    47.6050 ca         1 ST8      -0.156500
     24 O8           9.4850    46.4670    53.9010 o          1 ST8      -0.327300
     25 O24          2.9690    39.3760    46.6380 o          1 ST8      -0.610100
     26 H101         4.9150    44.3650    52.7930 h1         1 ST8       0.054700
     27 H102         4.5490    45.6040    51.5670 h1         1 ST8       0.054700
     28 H11          4.2380    47.2860    53.3640 hc         1 ST8       0.066700
     29 H121         4.5850    44.9140    55.3030 hc         1 ST8       0.043450
     30 H122         5.6610    46.3000    55.1690 hc         1 ST8       0.043450
     31 H131         4.0930    46.5450    57.1120 hc         1 ST8       0.042200
     32 H132         3.8820    47.8450    55.9430 hc         1 ST8       0.042200
     33 H141         2.0980    45.3470    56.2320 hc         1 ST8       0.039700
     34 H142         1.6550    46.9980    56.6570 hc         1 ST8       0.039700
     35 H151         1.7800    47.7080    54.2760 hc         1 ST8       0.042200
     36 H152         0.7000    46.3250    54.4220 hc         1 ST8       0.042200
     37 H161         2.2570    46.0730    52.4670 hc         1 ST8       0.043450
     38 H162         2.4770    44.7760    53.6360 hc         1 ST8       0.043450
     39 H19          5.2020    40.6100    46.2140 ha         1 ST8       0.126500
     40 H21          3.7420    40.8490    50.2960 ha         1 ST8       0.126500
     41 H22          5.6970    42.1820    50.9060 ha         1 ST8       0.135000
     42 H251         2.2820    39.8120    49.6530 hn         1 ST8       0.315000
     43 H252         1.3870    38.9270    48.4360 hn         1 ST8       0.315000
     44 H9N1        11.5190    45.0050    50.5940 hn         1 ST8       0.528000
     45 H9N2        11.2180    46.1190    51.8730 hn         1 ST8       0.528000
     46 H2           8.4580    42.8440    48.5740 hn         1 ST8       0.516000
     47 H18          7.1540    41.9730    46.8530 ha         1 ST8       0.135000
     48 N9          10.8640    45.6310    51.0540 nv         1 ST8      -1.037900
     49 C23          3.1160    39.7870    47.7770 c          1 ST8       0.615700
@<TRIPOS>BOND
     1     1    14 ar  
     2     1    20 ar  
     3     1    21 1   
     4     2     3 1   
     5     2    16 1   
     6     2    26 1   
     7     2    27 1   
     8     3     4 1   
     9     3     8 1   
    10     3    28 1   
    11     4     5 1   
    12     4    29 1   
    13     4    30 1   
    14     5     6 1   
    15     5    31 1   
    16     5    32 1   
    17     6     7 1   
    18     6    33 1   
    19     6    34 1   
    20     7     8 1   
    21     7    35 1   
    22     7    36 1   
    23     8    37 1   
    24     8    38 1   
    25     9    10 ar  
    26     9    23 ar  
    27     9    39 1   
    28    10    11 ar  
    29    10    49 1   
    30    11    12 ar  
    31    11    40 1   
    32    12    22 ar  
    33    12    41 1   
    34    13    42 1   
    35    13    43 1   
    36    13    49 1   
    37    14    15 ar  
    38    15    16 1   
    39    15    17 ar  
    40    17    18 1   
    41    17    19 ar  
    42    18    24 2   
    43    19    20 ar  
    44    19    48 1   
    45    21    22 1   
    46    21    46 1   
    47    22    23 ar  
    48    23    47 1   
    49    25    49 2   
    50    44    48 1   
    51    45    48 1   
@<TRIPOS>SUBSTRUCTURE
     1 ST8         1 TEMP              0 ****  ****    0 ROOT
