@<TRIPOS>MOLECULE
STA
   28    27     1     0     0
SMALL
No Charge or Current Charge


@<TRIPOS>ATOM
      1 N           -0.8340     1.0410    -1.6090 n8         1 STA      -1.025200
      2 CA          -0.7120     0.4590    -0.2470 c3         1 STA       0.128500
      3 CB          -1.8960    -0.5090     0.0490 c3         1 STA      -0.063400
      4 CG          -3.3200     0.1220     0.0460 c3         1 STA      -0.057700
      5 CD1         -4.4070    -0.9680     0.1940 c3         1 STA      -0.083600
      6 CD2         -3.4960     1.2160     1.1280 c3         1 STA      -0.083600
      7 CH           0.6820    -0.2360    -0.0440 c3         1 STA       0.143300
      8 OH           0.9030    -1.2360    -1.0530 oh         1 STA      -0.653000
      9 CM           1.8720     0.7500    -0.0910 c3         1 STA      -0.242400
     10 C            3.1440     0.0210     0.3500 c          1 STA       0.724000
     11 O            3.4330     0.0310     1.5350 o          1 STA      -0.734000
     12 OXT          3.7450    -0.6230    -0.4960 o          1 STA      -0.734000
     13 HN1         -0.0480     1.6860    -1.7460 hn         1 STA       0.393500
     14 HN2         -0.6160     0.2850    -2.2680 hn         1 STA       0.393500
     15 HA          -0.7670     1.2850     0.4760 h1         1 STA       0.055700
     16 HB1         -1.8720    -1.3270    -0.6830 hc         1 STA       0.040700
     17 HB2         -1.7290    -0.9750     1.0280 hc         1 STA       0.040700
     18 HG          -3.4800     0.5970    -0.9310 hc         1 STA       0.055700
     19 HD11        -4.3120    -1.4860     1.1570 hc         1 STA       0.024700
     20 HD12        -5.4090    -0.5270     0.1380 hc         1 STA       0.024700
     21 HD13        -4.3220    -1.7130    -0.6060 hc         1 STA       0.024700
     22 HD21        -2.8230     2.0630     0.9500 hc         1 STA       0.024700
     23 HD22        -4.5210     1.6040     1.1210 hc         1 STA       0.024700
     24 HD23        -3.2890     0.8140     2.1270 hc         1 STA       0.024700
     25 HC           0.6760    -0.7000     0.9540 h1         1 STA       0.092700
     26 HH           1.8820    -1.2980    -1.1520 ho         1 STA       0.419000
     27 HM1          1.9630     1.0870    -1.1320 hc         1 STA       0.019700
     28 HM2          1.6360     1.5600     0.6100 hc         1 STA       0.019700
@<TRIPOS>BOND
     1     1     2 1   
     2     1    13 1   
     3     1    14 1   
     4     2     3 1   
     5     2     7 1   
     6     2    15 1   
     7     3     4 1   
     8     3    16 1   
     9     3    17 1   
    10     4     5 1   
    11     4     6 1   
    12     4    18 1   
    13     5    19 1   
    14     5    20 1   
    15     5    21 1   
    16     6    22 1   
    17     6    23 1   
    18     6    24 1   
    19     7     8 1   
    20     7     9 1   
    21     7    25 1   
    22     8    26 1   
    23     9    10 1   
    24     9    27 1   
    25     9    28 1   
    26    10    11 1   
    27    10    12 1   
@<TRIPOS>SUBSTRUCTURE
     1 STA         1 TEMP              0 ****  ****    0 ROOT
