@<TRIPOS>MOLECULE
STA
   28    27     1     0     0
SMALL
bcc


@<TRIPOS>ATOM
      1 N           -0.8310     0.9590    -1.5470 n8         1 STA      -0.914800
      2 CA          -0.6790     0.4150    -0.2040 c3         1 STA       0.128500
      3 CB          -1.8530    -0.5120     0.1030 c3         1 STA      -0.063400
      4 CG          -3.2420     0.1170    -0.0150 c3         1 STA      -0.057700
      5 CD1         -4.3150    -0.9410     0.2250 c3         1 STA      -0.083600
      6 CD2         -3.4230     1.2890     0.9450 c3         1 STA      -0.083600
      7 CH           0.6640    -0.2910     0.0610 c3         1 STA       0.120100
      8 OH           0.8580    -1.4010    -0.7990 oh         1 STA      -0.590800
      9 CM           1.8480     0.6640     0.0050 c3         1 STA      -0.242400
     10 C            3.1830    -0.0000     0.3880 c          1 STA       0.934600
     11 O            3.1820    -0.6860     1.4310 o          1 STA      -0.839300
     12 OXT          4.1630     0.2190    -0.3510 o          1 STA      -0.839300
     13 HN1         -0.0510     1.5570    -1.7910 hn         1 STA       0.338300
     14 HN2         -0.8540     0.2120    -2.2300 hn         1 STA       0.338300
     15 HA          -0.7130     1.2590     0.4940 h1         1 STA       0.055700
     16 HB1         -1.8000    -1.3800    -0.5650 hc         1 STA       0.040700
     17 HB2         -1.7300    -0.9050     1.1190 hc         1 STA       0.040700
     18 HG          -3.3600     0.4930    -1.0350 hc         1 STA       0.055700
     19 HD11        -4.2390    -1.3570     1.2330 hc         1 STA       0.024700
     20 HD12        -5.3170    -0.5220     0.1180 hc         1 STA       0.024700
     21 HD13        -4.2240    -1.7690    -0.4810 hc         1 STA       0.024700
     22 HD21        -2.7420     2.1110     0.7200 hc         1 STA       0.024700
     23 HD22        -4.4390     1.6850     0.8940 hc         1 STA       0.024700
     24 HD23        -3.2400     0.9780     1.9770 hc         1 STA       0.024700
     25 HC           0.6250    -0.7100     1.0720 h1         1 STA       0.092700
     26 HH           1.0220    -1.0670    -1.6860 ho         1 STA       0.380000
     27 HM1          1.9270     1.1240    -0.9860 hc         1 STA       0.019700
     28 HM2          1.6610     1.4820     0.7100 hc         1 STA       0.019700
@<TRIPOS>BOND
     1     1     2 1   
     2     1    13 1   
     3     1    14 1   
     4     2     3 1   
     5     2     7 1   
     6     2    15 1   
     7     3     4 1   
     8     3    16 1   
     9     3    17 1   
    10     4     5 1   
    11     4     6 1   
    12     4    18 1   
    13     5    19 1   
    14     5    20 1   
    15     5    21 1   
    16     6    22 1   
    17     6    23 1   
    18     6    24 1   
    19     7     8 1   
    20     7     9 1   
    21     7    25 1   
    22     8    26 1   
    23     9    10 1   
    24     9    27 1   
    25     9    28 1   
    26    10    11 1   
    27    10    12 1   
@<TRIPOS>SUBSTRUCTURE
     1 STA         1 TEMP              0 ****  ****    0 ROOT
