@<TRIPOS>MOLECULE
STB
   39    39     1     0     0
SMALL
No Charge or Current Charge


@<TRIPOS>ATOM
      1 C1          -0.8010    -0.1590     1.4560 ca         1 STB      -0.096600
      2 C2          -1.0240    -1.3260     2.2240 ca         1 STB      -0.098500
      3 C3          -0.6240    -1.3960     3.5700 ca         1 STB      -0.017000
      4 C4           0.0080    -0.2940     4.1780 ca         1 STB      -0.253500
      5 C5           0.2400     0.8740     3.4260 ca         1 STB      -0.017000
      6 C6          -0.1610     0.9420     2.0790 ca         1 STB      -0.098500
      7 C7          -1.2470    -0.1250     0.0050 c          1 STB       0.606700
      8 O7          -1.7970    -1.0790    -0.5300 o          1 STB      -0.592100
      9 N           -1.0090     1.0430    -0.6920 ns         1 STB      -0.501900
     10 C8          -1.3360     1.2580    -2.1040 c3         1 STB       0.103000
     11 C9          -0.2980     0.6130    -3.0440 c3         1 STB      -0.100400
     12 C10         -0.6120     0.8490    -4.5390 c3         1 STB      -0.077400
     13 C11          0.4260     0.2060    -5.4800 c3         1 STB       0.163800
     14 N5           0.0700     0.4820    -6.8860 n7         1 STB      -0.865400
     15 C12          1.0120    -0.0110    -7.8980 c3         1 STB       0.360800
     16 S7           0.9340    -1.8500    -7.9350 sh         1 STB      -0.563800
     17 S            0.5200    -0.3800     5.8990 sy         1 STB       1.127600
     18 O1S         -0.2050    -1.4310     6.6090 o          1 STB      -0.542000
     19 O2S          0.7020     0.9570     6.4580 o          1 STB      -0.542000
     20 N3S          2.0400    -0.9630     5.8050 n8         1 STB      -1.009100
     21 H2          -1.5100    -2.1900     1.7770 ha         1 STB       0.129000
     22 H3          -0.8080    -2.3090     4.1340 ha         1 STB       0.141000
     23 H5           0.7310     1.7330     3.8790 ha         1 STB       0.141000
     24 H6           0.0370     1.8610     1.5360 ha         1 STB       0.129000
     25 HN          -0.5570     1.7940    -0.1860 hn         1 STB       0.317500
     26 H1'1        -2.3320     0.8440    -2.3100 h1         1 STB       0.057200
     27 H1'2        -1.3760     2.3400    -2.2910 h1         1 STB       0.057200
     28 H2'1         0.6950     1.0190    -2.8150 hc         1 STB       0.049700
     29 H2'2        -0.2560    -0.4660    -2.8520 hc         1 STB       0.049700
     30 H3'1        -1.6060     0.4430    -4.7650 hc         1 STB       0.046700
     31 H3'2        -0.6520     1.9280    -4.7320 hc         1 STB       0.046700
     32 H4'1         1.4190     0.6170    -5.2480 h1         1 STB       0.045700
     33 H4'2         0.4590    -0.8750    -5.2860 h1         1 STB       0.045700
     34 HN5         -0.8440     0.0630    -7.0820 hn         1 STB       0.423000
     35 H6'1         0.7500     0.3470    -8.9030 h2         1 STB       0.079200
     36 H6'2         2.0460     0.2830    -7.6730 h2         1 STB       0.079200
     37 HS7         -0.3260    -1.9230    -8.4290 hs         1 STB       0.219800
     38 HN31         1.9750    -1.7460     6.4500 hn         1 STB       0.477000
     39 HN32         2.5350    -0.2700     6.3620 hn         1 STB       0.477000
@<TRIPOS>BOND
     1     1     2 ar  
     2     1     6 ar  
     3     1     7 1   
     4     2     3 ar  
     5     2    21 1   
     6     3     4 ar  
     7     3    22 1   
     8     4     5 ar  
     9     4    17 1   
    10     5     6 ar  
    11     5    23 1   
    12     6    24 1   
    13     7     8 2   
    14     7     9 1   
    15     9    10 1   
    16     9    25 1   
    17    10    11 1   
    18    10    26 1   
    19    10    27 1   
    20    11    12 1   
    21    11    28 1   
    22    11    29 1   
    23    12    13 1   
    24    12    30 1   
    25    12    31 1   
    26    13    14 1   
    27    13    32 1   
    28    13    33 1   
    29    14    15 1   
    30    14    34 1   
    31    15    16 1   
    32    15    35 1   
    33    15    36 1   
    34    16    37 1   
    35    17    18 2   
    36    17    19 2   
    37    17    20 1   
    38    20    38 1   
    39    20    39 1   
@<TRIPOS>SUBSTRUCTURE
     1 STB         1 TEMP              0 ****  ****    0 ROOT
