@<TRIPOS>MOLECULE
STB
   39    39     1     0     0
SMALL
abcg2


@<TRIPOS>ATOM
      1 C1          -0.7790    -0.1840     1.4480 ca         1 STB      -0.096600
      2 C2          -1.3310    -1.0060     2.4290 ca         1 STB      -0.098500
      3 C3          -0.8550    -0.9670     3.7260 ca         1 STB      -0.017000
      4 C4           0.2020    -0.1180     4.0330 ca         1 STB      -0.253500
      5 C5           0.7760     0.6930     3.0700 ca         1 STB      -0.017000
      6 C6           0.2770     0.6580     1.7750 ca         1 STB      -0.098500
      7 C7          -1.3100    -0.2890     0.0500 c          1 STB       0.606700
      8 O7          -1.7430    -1.3530    -0.3710 o          1 STB      -0.592100
      9 N           -1.2820     0.8380    -0.6720 ns         1 STB      -0.501900
     10 C8          -1.6370     0.8930    -2.0750 c3         1 STB       0.103000
     11 C9          -0.4600     0.5760    -2.9900 c3         1 STB      -0.100400
     12 C10         -0.8340     0.6790    -4.4620 c3         1 STB      -0.077400
     13 C11          0.3450     0.3780    -5.3730 c3         1 STB       0.163800
     14 N5          -0.0340     0.4820    -6.7680 n7         1 STB      -0.865400
     15 C12          1.0220     0.3440    -7.7080 c3         1 STB       0.360800
     16 S7           1.9580    -1.2660    -7.7110 sh         1 STB      -0.563800
     17 S            0.7960    -0.0610     5.7020 sy         1 STB       1.127600
     18 O1S         -0.3380     0.0010     6.6120 o          1 STB      -0.542000
     19 O2S          1.8050     0.9860     5.7770 o          1 STB      -0.542000
     20 N3S          1.4240    -1.5770     5.8650 n8         1 STB      -1.009100
     21 H2          -2.1450    -1.6740     2.1820 ha         1 STB       0.129000
     22 H3          -1.3000    -1.6020     4.4800 ha         1 STB       0.141000
     23 H5           1.6070     1.3440     3.3060 ha         1 STB       0.141000
     24 H6           0.7470     1.2820     1.0250 ha         1 STB       0.129000
     25 HN          -0.9570     1.6900    -0.2450 hn         1 STB       0.317500
     26 H1'1        -2.4590     0.2010    -2.2600 h1         1 STB       0.057200
     27 H1'2        -2.0110     1.8970    -2.2790 h1         1 STB       0.057200
     28 H2'1         0.3600     1.2660    -2.7680 hc         1 STB       0.049700
     29 H2'2        -0.0940    -0.4310    -2.7690 hc         1 STB       0.049700
     30 H3'1        -1.6500    -0.0180    -4.6820 hc         1 STB       0.046700
     31 H3'2        -1.2120     1.6820    -4.6810 hc         1 STB       0.046700
     32 H4'1         1.1450     1.1020    -5.1850 h1         1 STB       0.045700
     33 H4'2         0.7570    -0.6100    -5.1250 h1         1 STB       0.045700
     34 HN5         -0.7870    -0.1600    -6.9800 hn         1 STB       0.423000
     35 H6'1         0.6430     0.4940    -8.7170 h2         1 STB       0.079200
     36 H6'2         1.7930     1.0910    -7.5200 h2         1 STB       0.079200
     37 HS7          0.9730    -2.0160    -8.2190 hs         1 STB       0.219800
     38 HN31         1.4790    -1.8580     6.8390 hn         1 STB       0.477000
     39 HN32         2.3250    -1.6860     5.4110 hn         1 STB       0.477000
@<TRIPOS>BOND
     1     1     2 ar  
     2     1     6 ar  
     3     1     7 1   
     4     2     3 ar  
     5     2    21 1   
     6     3     4 ar  
     7     3    22 1   
     8     4     5 ar  
     9     4    17 1   
    10     5     6 ar  
    11     5    23 1   
    12     6    24 1   
    13     7     8 2   
    14     7     9 1   
    15     9    10 1   
    16     9    25 1   
    17    10    11 1   
    18    10    26 1   
    19    10    27 1   
    20    11    12 1   
    21    11    28 1   
    22    11    29 1   
    23    12    13 1   
    24    12    30 1   
    25    12    31 1   
    26    13    14 1   
    27    13    32 1   
    28    13    33 1   
    29    14    15 1   
    30    14    34 1   
    31    15    16 1   
    32    15    35 1   
    33    15    36 1   
    34    16    37 1   
    35    17    18 2   
    36    17    19 2   
    37    17    20 1   
    38    20    38 1   
    39    20    39 1   
@<TRIPOS>SUBSTRUCTURE
     1 STB         1 TEMP              0 ****  ****    0 ROOT
