@<TRIPOS>MOLECULE
STC
   26    27     1     0     0
SMALL
No Charge or Current Charge


@<TRIPOS>ATOM
      1 N1           1.7810    -0.5140    -0.0890 nu         1 STC      -0.870100
      2 C2           1.0790    -0.1990    -1.2470 ca         1 STC       0.269000
      3 C3           0.8470     1.1530    -1.5650 ca         1 STC      -0.103000
      4 C4           0.6180    -1.1980    -2.1280 ca         1 STC      -0.103000
      5 C5           0.1410     1.5020    -2.7310 ca         1 STC      -0.102000
      6 C6          -0.0880    -0.8510    -3.2950 ca         1 STC      -0.102000
      7 C7          -0.3290     0.4990    -3.5930 ca         1 STC       0.101000
      8 Cl8         -1.2090     0.9340    -5.0510 cl         1 STC      -0.237000
      9 S13          1.2670    -1.5210     1.1400 sy         1 STC       1.173600
     10 C15         -0.2910    -0.7420     1.6140 cc         1 STC      -0.348500
     11 O16          2.2670    -1.3220     2.1900 o          1 STC      -0.558500
     12 O17          1.0190    -2.8270     0.5230 o          1 STC      -0.558500
     13 C18         -0.4680     0.5790     2.0550 cd         1 STC      -0.147600
     14 C19         -1.5350    -1.4360     1.5760 cc         1 STC      -0.058000
     15 S20         -2.1570     0.9080     2.4890 ss         1 STC       0.272000
     16 C21          0.5390     1.6890     2.1500 c          1 STC       0.735600
     17 C22         -2.6230    -0.7150     1.9790 cd         1 STC      -0.322000
     18 O23          0.1630     2.7620     2.5970 o          1 STC      -0.690500
     19 O24          1.6780     1.5250     1.7360 o          1 STC      -0.690500
     20 HN11         1.9800     0.3030     0.4950 hn         1 STC       0.548000
     21 H31          1.2100     1.9390    -0.9090 ha         1 STC       0.142000
     22 H41          0.8130    -2.2450    -1.9210 ha         1 STC       0.142000
     23 H51         -0.0390     2.5480    -2.9660 ha         1 STC       0.120000
     24 H61         -0.4420    -1.6270    -3.9690 ha         1 STC       0.120000
     25 H191        -1.6020    -2.4700     1.2450 ha         1 STC       0.137000
     26 H221        -3.6570    -1.0300     2.0320 h4         1 STC       0.130000
@<TRIPOS>BOND
     1     1     2 1   
     2     1     9 1   
     3     1    20 1   
     4     2     3 ar  
     5     2     4 ar  
     6     3     5 ar  
     7     3    21 1   
     8     4     6 ar  
     9     4    22 1   
    10     5     7 ar  
    11     5    23 1   
    12     6     7 ar  
    13     6    24 1   
    14     7     8 1   
    15     9    10 1   
    16     9    11 2   
    17     9    12 2   
    18    10    13 2   
    19    10    14 1   
    20    13    15 1   
    21    13    16 1   
    22    14    17 2   
    23    14    25 1   
    24    15    17 1   
    25    16    18 1   
    26    16    19 1   
    27    17    26 1   
@<TRIPOS>SUBSTRUCTURE
     1 STC         1 TEMP              0 ****  ****    0 ROOT
