@<TRIPOS>MOLECULE
STC
   26    27     1     0     0
SMALL
bcc


@<TRIPOS>ATOM
      1 N1           1.7720    -0.4740    -0.1250 nu         1 STC      -0.676500
      2 C2           1.0580    -0.2160    -1.3210 ca         1 STC       0.130600
      3 C3           0.4300     1.0100    -1.5110 ca         1 STC      -0.121000
      4 C4           1.0160    -1.1740    -2.3290 ca         1 STC      -0.121000
      5 C5          -0.2340     1.2850    -2.6970 ca         1 STC      -0.120000
      6 C6           0.3390    -0.9140    -3.5090 ca         1 STC      -0.120000
      7 C7          -0.2810     0.3140    -3.6840 ca         1 STC       0.009400
      8 CL8         -1.1210     0.6410    -5.1640 cl         1 STC      -0.145400
      9 S13          1.0630    -1.4750     0.9960 sy         1 STC       1.315200
     10 C15         -0.3530    -0.6160     1.6040 cc         1 STC      -0.348500
     11 O16          2.0270    -1.6300     2.0690 o          1 STC      -0.629300
     12 O17          0.5740    -2.6560     0.3050 o          1 STC      -0.629300
     13 C18         -0.3380     0.6300     2.1800 cd         1 STC      -0.002700
     14 C19         -1.6370    -1.2230     1.5790 cc         1 STC      -0.076000
     15 S20         -1.9120     1.0480     2.7050 ss         1 STC      -0.017800
     16 C21          0.7470     1.6580     2.4010 c          1 STC       0.946200
     17 C22         -2.5790    -0.4210     2.1450 cd         1 STC      -0.195100
     18 O23          0.4330     2.5900     3.1510 o          1 STC      -0.795800
     19 O24          1.8310     1.4870     1.8030 o          1 STC      -0.795800
     20 HN11         2.0280     0.3820     0.3960 hn         1 STC       0.492800
     21 H31          0.4610     1.7610    -0.7320 ha         1 STC       0.160000
     22 H41          1.5260    -2.1190    -2.2040 ha         1 STC       0.160000
     23 H51         -0.7160     2.2420    -2.8390 ha         1 STC       0.138000
     24 H61          0.3070    -1.6610    -4.2910 ha         1 STC       0.138000
     25 H191        -1.8460    -2.1980     1.1670 ha         1 STC       0.155000
     26 H221        -3.6320    -0.6300     2.2590 h4         1 STC       0.148000
@<TRIPOS>BOND
     1     1     2 1   
     2     1     9 1   
     3     1    20 1   
     4     2     3 ar  
     5     2     4 ar  
     6     3     5 ar  
     7     3    21 1   
     8     4     6 ar  
     9     4    22 1   
    10     5     7 ar  
    11     5    23 1   
    12     6     7 ar  
    13     6    24 1   
    14     7     8 1   
    15     9    10 1   
    16     9    11 2   
    17     9    12 2   
    18    10    13 2   
    19    10    14 1   
    20    13    15 1   
    21    13    16 1   
    22    14    17 2   
    23    14    25 1   
    24    15    17 1   
    25    16    18 1   
    26    16    19 1   
    27    17    26 1   
@<TRIPOS>SUBSTRUCTURE
     1 STC         1 TEMP              0 ****  ****    0 ROOT
