@<TRIPOS>MOLECULE
STE
   55    54     1     0     0
SMALL
abcg2


@<TRIPOS>ATOM
      1 C1          -0.0130     0.0860    -9.7140 c          1 STE       0.717000
      2 O1           1.2330     0.0640    -9.7310 o          1 STE      -0.743500
      3 O2          -0.7630     0.1420   -10.7130 o          1 STE      -0.743500
      4 C2          -0.7180     0.0340    -8.3470 c3         1 STE      -0.203400
      5 C3           0.1820     0.0380    -7.1220 c3         1 STE      -0.054400
      6 C4          -0.6040    -0.0050    -5.8170 c3         1 STE      -0.079400
      7 C5           0.2790     0.0070    -4.5750 c3         1 STE      -0.074400
      8 C6          -0.5160    -0.0280    -3.2760 c3         1 STE      -0.075400
      9 C7           0.3570    -0.0100    -2.0270 c3         1 STE      -0.074400
     10 C8          -0.4480    -0.0380    -0.7340 c3         1 STE      -0.074400
     11 C9           0.4160    -0.0140     0.5200 c3         1 STE      -0.074400
     12 C10         -0.3980    -0.0360     1.8080 c3         1 STE      -0.074400
     13 C11          0.4580    -0.0090     3.0680 c3         1 STE      -0.074400
     14 C12         -0.3640    -0.0260     4.3500 c3         1 STE      -0.074400
     15 C13          0.4840     0.0040     5.6150 c3         1 STE      -0.074400
     16 C14         -0.3450    -0.0140     6.8940 c3         1 STE      -0.074400
     17 C15          0.4970     0.0150     8.1630 c3         1 STE      -0.074400
     18 C16         -0.3380    -0.0020     9.4370 c3         1 STE      -0.075400
     19 C17          0.4970     0.0230    10.7110 c3         1 STE      -0.075400
     20 C18         -0.3550     0.0040    11.9730 c3         1 STE      -0.088100
     21 H21         -1.3550    -0.8590    -8.3290 hc         1 STE       0.014200
     22 H22         -1.4170     0.8760    -8.2900 hc         1 STE       0.014200
     23 H31          0.8170     0.9290    -7.1310 hc         1 STE       0.037700
     24 H32          0.8650    -0.8170    -7.1600 hc         1 STE       0.037700
     25 H41         -1.2370    -0.8990    -5.8020 hc         1 STE       0.023700
     26 H42         -1.2910     0.8490    -5.7770 hc         1 STE       0.023700
     27 H51          0.9120     0.9010    -4.5890 hc         1 STE       0.033700
     28 H52          0.9630    -0.8480    -4.6070 hc         1 STE       0.033700
     29 H61         -1.1480    -0.9240    -3.2620 hc         1 STE       0.031700
     30 H62         -1.2030     0.8250    -3.2480 hc         1 STE       0.031700
     31 H71          0.9910     0.8850    -2.0410 hc         1 STE       0.035200
     32 H72          1.0420    -0.8650    -2.0490 hc         1 STE       0.035200
     33 H81         -1.0800    -0.9330    -0.7210 hc         1 STE       0.034700
     34 H82         -1.1350     0.8160    -0.7170 hc         1 STE       0.034700
     35 H91          1.0510     0.8800     0.5070 hc         1 STE       0.035700
     36 H92          1.1000    -0.8700     0.5070 hc         1 STE       0.035700
     37 H101        -1.0320    -0.9300     1.8200 hc         1 STE       0.035700
     38 H102        -1.0830     0.8200     1.8170 hc         1 STE       0.035700
     39 H111         1.0930     0.8840     3.0560 hc         1 STE       0.036700
     40 H112         1.1410    -0.8660     3.0620 hc         1 STE       0.036700
     41 H121        -0.9990    -0.9200     4.3620 hc         1 STE       0.036200
     42 H122        -1.0490     0.8290     4.3540 hc         1 STE       0.036200
     43 H131         1.1190     0.8970     5.6060 hc         1 STE       0.036700
     44 H132         1.1680    -0.8530     5.6140 hc         1 STE       0.036700
     45 H141        -0.9810    -0.9070     6.9010 hc         1 STE       0.036700
     46 H142        -1.0290     0.8430     6.8930 hc         1 STE       0.036700
     47 H151         1.1330     0.9080     8.1570 hc         1 STE       0.036700
     48 H152         1.1800    -0.8420     8.1650 hc         1 STE       0.036700
     49 H161        -0.9760    -0.8940     9.4410 hc         1 STE       0.036700
     50 H162        -1.0200     0.8560     9.4350 hc         1 STE       0.036700
     51 H171         1.1330     0.9140    10.7090 hc         1 STE       0.036200
     52 H172         1.1780    -0.8340    10.7140 hc         1 STE       0.036200
     53 H181         0.2570     0.0220    12.8750 hc         1 STE       0.030033
     54 H182        -1.0210     0.8690    12.0090 hc         1 STE       0.030033
     55 H183        -0.9770    -0.8920    12.0130 hc         1 STE       0.030033
@<TRIPOS>BOND
     1     1     2 1   
     2     1     3 1   
     3     1     4 1   
     4     4     5 1   
     5     4    21 1   
     6     4    22 1   
     7     5     6 1   
     8     5    23 1   
     9     5    24 1   
    10     6     7 1   
    11     6    25 1   
    12     6    26 1   
    13     7     8 1   
    14     7    27 1   
    15     7    28 1   
    16     8     9 1   
    17     8    29 1   
    18     8    30 1   
    19     9    10 1   
    20     9    31 1   
    21     9    32 1   
    22    10    11 1   
    23    10    33 1   
    24    10    34 1   
    25    11    12 1   
    26    11    35 1   
    27    11    36 1   
    28    12    13 1   
    29    12    37 1   
    30    12    38 1   
    31    13    14 1   
    32    13    39 1   
    33    13    40 1   
    34    14    15 1   
    35    14    41 1   
    36    14    42 1   
    37    15    16 1   
    38    15    43 1   
    39    15    44 1   
    40    16    17 1   
    41    16    45 1   
    42    16    46 1   
    43    17    18 1   
    44    17    47 1   
    45    17    48 1   
    46    18    19 1   
    47    18    49 1   
    48    18    50 1   
    49    19    20 1   
    50    19    51 1   
    51    19    52 1   
    52    20    53 1   
    53    20    54 1   
    54    20    55 1   
@<TRIPOS>SUBSTRUCTURE
     1 STE         1 TEMP              0 ****  ****    0 ROOT
