@<TRIPOS>MOLECULE
STE
   55    54     1     0     0
SMALL
No Charge or Current Charge


@<TRIPOS>ATOM
      1 C1           0.1850     0.0430    -9.7590 c          1 STE       0.717000
      2 O1           0.6520    -0.9880   -10.2180 o          1 STE      -0.743500
      3 O2           0.4180     1.1520   -10.2150 o          1 STE      -0.743500
      4 C2          -0.6970    -0.0550    -8.5000 c3         1 STE      -0.203400
      5 C3           0.1770     0.0390    -7.2260 c3         1 STE      -0.054400
      6 C4          -0.6420    -0.0530    -5.9180 c3         1 STE      -0.079400
      7 C5           0.2330     0.0410    -4.6490 c3         1 STE      -0.074400
      8 C6          -0.5860    -0.0500    -3.3420 c3         1 STE      -0.075400
      9 C7           0.2890     0.0440    -2.0730 c3         1 STE      -0.074400
     10 C8          -0.5300    -0.0480    -0.7660 c3         1 STE      -0.074400
     11 C9           0.3440     0.0470     0.5030 c3         1 STE      -0.074400
     12 C10         -0.4740    -0.0450     1.8090 c3         1 STE      -0.074400
     13 C11          0.4000     0.0500     3.0790 c3         1 STE      -0.074400
     14 C12         -0.4190    -0.0420     4.3850 c3         1 STE      -0.074400
     15 C13          0.4560     0.0530     5.6540 c3         1 STE      -0.074400
     16 C14         -0.3630    -0.0390     6.9610 c3         1 STE      -0.074400
     17 C15          0.5120     0.0560     8.2300 c3         1 STE      -0.074400
     18 C16         -0.3070    -0.0360     9.5360 c3         1 STE      -0.075400
     19 C17          0.5680     0.0590    10.8060 c3         1 STE      -0.075400
     20 C18         -0.2490    -0.0320    12.1090 c3         1 STE      -0.088100
     21 H21         -1.1920    -1.0340    -8.4530 hc         1 STE       0.014200
     22 H22         -1.3920     0.7930    -8.4510 hc         1 STE       0.014200
     23 H31          0.7310     0.9860    -7.2370 hc         1 STE       0.037700
     24 H32          0.9230    -0.7660    -7.2400 hc         1 STE       0.037700
     25 H41         -1.1940    -1.0010    -5.9050 hc         1 STE       0.023700
     26 H42         -1.3860     0.7530    -5.9020 hc         1 STE       0.023700
     27 H51          0.7860     0.9890    -4.6610 hc         1 STE       0.033700
     28 H52          0.9780    -0.7640    -4.6640 hc         1 STE       0.033700
     29 H61         -1.1380    -0.9980    -3.3290 hc         1 STE       0.031700
     30 H62         -1.3310     0.7550    -3.3270 hc         1 STE       0.031700
     31 H71          0.8410     0.9920    -2.0860 hc         1 STE       0.035200
     32 H72          1.0340    -0.7620    -2.0880 hc         1 STE       0.035200
     33 H81         -1.0830    -0.9950    -0.7530 hc         1 STE       0.034700
     34 H82         -1.2750     0.7580    -0.7510 hc         1 STE       0.034700
     35 H91          0.8970     0.9950     0.4900 hc         1 STE       0.035700
     36 H92          1.0890    -0.7590     0.4880 hc         1 STE       0.035700
     37 H101        -1.0270    -0.9930     1.8220 hc         1 STE       0.035700
     38 H102        -1.2190     0.7610     1.8240 hc         1 STE       0.035700
     39 H111         0.9530     0.9980     3.0660 hc         1 STE       0.036700
     40 H112         1.1450    -0.7560     3.0630 hc         1 STE       0.036700
     41 H121        -0.9710    -0.9900     4.3980 hc         1 STE       0.036200
     42 H122        -1.1630     0.7640     4.4000 hc         1 STE       0.036200
     43 H131         1.0090     1.0010     5.6410 hc         1 STE       0.036700
     44 H132         1.2010    -0.7530     5.6390 hc         1 STE       0.036700
     45 H141        -0.9150    -0.9870     6.9740 hc         1 STE       0.036700
     46 H142        -1.1080     0.7670     6.9760 hc         1 STE       0.036700
     47 H151         1.0640     1.0040     8.2170 hc         1 STE       0.036700
     48 H152         1.2570    -0.7490     8.2150 hc         1 STE       0.036700
     49 H161        -0.8590    -0.9840     9.5500 hc         1 STE       0.036700
     50 H162        -1.0520     0.7700     9.5520 hc         1 STE       0.036700
     51 H171         1.1200     1.0070    10.7970 hc         1 STE       0.036200
     52 H172         1.3130    -0.7460    10.7950 hc         1 STE       0.036200
     53 H181         0.4130     0.0390    12.9810 hc         1 STE       0.030033
     54 H182        -0.9810     0.7820    12.1670 hc         1 STE       0.030033
     55 H183        -0.7860    -0.9870    12.1640 hc         1 STE       0.030033
@<TRIPOS>BOND
     1     1     2 1   
     2     1     3 1   
     3     1     4 1   
     4     4     5 1   
     5     4    21 1   
     6     4    22 1   
     7     5     6 1   
     8     5    23 1   
     9     5    24 1   
    10     6     7 1   
    11     6    25 1   
    12     6    26 1   
    13     7     8 1   
    14     7    27 1   
    15     7    28 1   
    16     8     9 1   
    17     8    29 1   
    18     8    30 1   
    19     9    10 1   
    20     9    31 1   
    21     9    32 1   
    22    10    11 1   
    23    10    33 1   
    24    10    34 1   
    25    11    12 1   
    26    11    35 1   
    27    11    36 1   
    28    12    13 1   
    29    12    37 1   
    30    12    38 1   
    31    13    14 1   
    32    13    39 1   
    33    13    40 1   
    34    14    15 1   
    35    14    41 1   
    36    14    42 1   
    37    15    16 1   
    38    15    43 1   
    39    15    44 1   
    40    16    17 1   
    41    16    45 1   
    42    16    46 1   
    43    17    18 1   
    44    17    47 1   
    45    17    48 1   
    46    18    19 1   
    47    18    49 1   
    48    18    50 1   
    49    19    20 1   
    50    19    51 1   
    51    19    52 1   
    52    20    53 1   
    53    20    54 1   
    54    20    55 1   
@<TRIPOS>SUBSTRUCTURE
     1 STE         1 TEMP              0 ****  ****    0 ROOT
