@<TRIPOS>MOLECULE
STF
   26    27     1     0     0
SMALL
No Charge or Current Charge


@<TRIPOS>ATOM
      1 C8          -1.9410     1.0270    -0.0950 c5         1 STF      -0.078700
      2 S12         -2.1340    -0.8150    -0.1920 ss         1 STF      -0.244200
      3 C11         -3.8660    -0.5370    -0.4140 c2         1 STF       0.514100
      4 N10         -4.3090     0.6570    -0.2170 ne         1 STF      -0.656100
      5 C9          -3.3580     1.5940     0.1850 c          1 STF       0.696500
      6 O17         -3.6230     2.6610     0.7140 o          1 STF      -0.474100
      7 S18         -4.9370    -1.8760    -0.8680 sh         1 STF      -0.184000
      8 C7          -0.8920     1.4360     0.9700 c3         1 STF      -0.011100
      9 C1           0.5100     0.9230     0.6620 ca         1 STF      -0.065300
     10 C6           1.2670     1.5080    -0.3690 ca         1 STF      -0.107000
     11 C5           2.5590     1.0370    -0.6610 ca         1 STF      -0.058500
     12 C4           3.1150    -0.0330     0.0740 ca         1 STF      -0.192300
     13 C3           2.3550    -0.6110     1.1140 ca         1 STF      -0.058500
     14 C2           1.0640    -0.1370     1.4030 ca         1 STF      -0.107000
     15 C13          4.5280    -0.5410    -0.2360 c3         1 STF       0.357300
     16 F16          4.8560    -0.3860    -1.5390 f          1 STF      -0.113000
     17 F15          4.6740    -1.8570     0.0430 f          1 STF      -0.113000
     18 F14          5.4570     0.1220     0.4870 f          1 STF      -0.113000
     19 H7          -1.6410     1.4070    -1.0800 h1         1 STF       0.116700
     20 H19         -6.0570    -1.1220    -0.8780 hs         1 STF       0.231800
     21 H6          -0.8590     2.5300     1.0480 hc         1 STF       0.073700
     22 H5          -1.2150     1.0830     1.9570 hc         1 STF       0.073700
     23 H4           0.8560     2.3320    -0.9480 ha         1 STF       0.124000
     24 H3           3.1270     1.5110    -1.4600 ha         1 STF       0.132500
     25 H2           2.7630    -1.4290     1.7060 ha         1 STF       0.132500
     26 H1           0.4930    -0.6000     2.2050 ha         1 STF       0.124000
@<TRIPOS>BOND
     1     1     2 1   
     2     1     5 1   
     3     1     8 1   
     4     1    19 1   
     5     2     3 1   
     6     3     4 2   
     7     3     7 1   
     8     4     5 1   
     9     5     6 2   
    10     7    20 1   
    11     8     9 1   
    12     8    21 1   
    13     8    22 1   
    14     9    10 ar  
    15     9    14 ar  
    16    10    11 ar  
    17    10    23 1   
    18    11    12 ar  
    19    11    24 1   
    20    12    13 ar  
    21    12    15 1   
    22    13    14 ar  
    23    13    25 1   
    24    14    26 1   
    25    15    16 1   
    26    15    17 1   
    27    15    18 1   
@<TRIPOS>SUBSTRUCTURE
     1 STF         1 TEMP              0 ****  ****    0 ROOT
