@<TRIPOS>MOLECULE
STF
   26    27     1     0     0
SMALL
bcc


@<TRIPOS>ATOM
      1 C8          -1.8610     1.1050    -0.2630 c5         1 STF      -0.126600
      2 S12         -2.0230    -0.6840    -0.5060 ss         1 STF      -0.196300
      3 C11         -3.7480    -0.5300    -0.2830 c2         1 STF       0.514100
      4 N10         -4.2550     0.6270    -0.0500 ne         1 STF      -0.656100
      5 C9          -3.2850     1.6110    -0.0070 c          1 STF       0.696500
      6 O17         -3.5180     2.7710     0.2200 o          1 STF      -0.474100
      7 S18         -4.6660    -1.9860    -0.3970 sh         1 STF      -0.184000
      8 C7          -0.9120     1.4550     0.8840 c3         1 STF      -0.011100
      9 C1           0.4770     0.9460     0.6290 ca         1 STF      -0.065300
     10 C6           1.3250     1.6150    -0.2490 ca         1 STF      -0.125000
     11 C5           2.5920     1.1270    -0.5250 ca         1 STF      -0.076500
     12 C4           3.0280    -0.0480     0.0770 ca         1 STF      -0.192300
     13 C3           2.1940    -0.7220     0.9600 ca         1 STF      -0.076500
     14 C2           0.9280    -0.2260     1.2290 ca         1 STF      -0.125000
     15 C13          4.4130    -0.5510    -0.1790 c3         1 STF       0.721200
     16 F16          4.8520    -0.2300    -1.4010 f          1 STF      -0.234300
     17 F15          4.4980    -1.8820    -0.0680 f          1 STF      -0.234300
     18 F14          5.2960    -0.0370     0.6930 f          1 STF      -0.234300
     19 H7          -1.5020     1.5430    -1.1990 h1         1 STF       0.116700
     20 H19         -5.8600    -1.4190    -0.1800 hs         1 STF       0.231800
     21 H6          -0.9040     2.5430     0.9800 hc         1 STF       0.073700
     22 H5          -1.3020     1.0480     1.8190 hc         1 STF       0.073700
     23 H4           0.9980     2.5320    -0.7250 ha         1 STF       0.142000
     24 H3           3.2270     1.6710    -1.2100 ha         1 STF       0.150500
     25 H2           2.5130    -1.6350     1.4450 ha         1 STF       0.150500
     26 H1           0.2860    -0.7590     1.9180 ha         1 STF       0.142000
@<TRIPOS>BOND
     1     1     2 1   
     2     1     5 1   
     3     1     8 1   
     4     1    19 1   
     5     2     3 1   
     6     3     4 2   
     7     3     7 1   
     8     4     5 1   
     9     5     6 2   
    10     7    20 1   
    11     8     9 1   
    12     8    21 1   
    13     8    22 1   
    14     9    10 ar  
    15     9    14 ar  
    16    10    11 ar  
    17    10    23 1   
    18    11    12 ar  
    19    11    24 1   
    20    12    13 ar  
    21    12    15 1   
    22    13    14 ar  
    23    13    25 1   
    24    14    26 1   
    25    15    16 1   
    26    15    17 1   
    27    15    18 1   
@<TRIPOS>SUBSTRUCTURE
     1 STF         1 TEMP              0 ****  ****    0 ROOT
