@<TRIPOS>MOLECULE
STG
   64    68     1     0     0
SMALL
No Charge or Current Charge


@<TRIPOS>ATOM
      1 C1           0.3110    -1.0340     0.1060 ca         1 STG      -0.078000
      2 C2          -0.0190    -0.8150    -1.2420 ca         1 STG      -0.157000
      3 C3          -1.1700    -0.0770    -1.5780 ca         1 STG       0.165100
      4 C4          -1.9850     0.4210    -0.5520 ca         1 STG      -0.157000
      5 C5          -1.6670     0.2040     0.8020 ca         1 STG      -0.052300
      6 C6          -2.6120     0.7850     1.8610 c6         1 STG      -0.028100
      7 C7          -2.3600     0.2610     3.2890 c6         1 STG      -0.067400
      8 C8          -0.8450     0.2420     3.5880 c6         1 STG      -0.047700
      9 C9          -0.1400    -0.7820     2.6350 c6         1 STG       0.001600
     10 C10         -0.4920    -0.5150     1.1480 ca         1 STG      -0.113300
     11 C11          1.3970    -0.8660     2.9410 c6         1 STG      -0.072400
     12 C12          1.7000    -1.1360     4.4480 c6         1 STG      -0.058400
     13 C13          0.9980    -0.1060     5.3790 c5         1 STG      -0.038000
     14 C14         -0.5300    -0.1240     5.0650 c5         1 STG      -0.061700
     15 C15         -1.1330     0.7500     6.2080 c5         1 STG      -0.098400
     16 C16         -0.1980     0.4530     7.4350 c5         1 STG       0.121300
     17 C17          0.8730    -0.5570     6.8720 c5         1 STG       0.176300
     18 C18          1.7110     1.2850     5.2080 c3         1 STG      -0.077100
     19 O19          2.1030    -0.5230     7.6050 oh         1 STG      -0.651000
     20 O20         -1.5620     0.1690    -2.8810 os         1 STG      -0.355100
     21 C21         -0.7610    -0.2570    -4.0000 c6         1 STG       0.359300
     22 C22         -1.5430    -0.0310    -5.3350 c6         1 STG       0.101300
     23 C23         -0.6380    -0.4900    -6.5120 c6         1 STG       0.168300
     24 C24          0.7270     0.2670    -6.4760 c6         1 STG       0.173300
     25 C25          1.4000     0.0790    -5.0850 c6         1 STG      -0.018700
     26 C26          2.7740     0.8300    -5.0400 c          1 STG       0.733000
     27 O27          0.4670     0.5020    -4.0380 os         1 STG      -0.428000
     28 O28         -2.8170    -0.7250    -5.3640 oh         1 STG      -0.735000
     29 O29         -1.3070    -0.2740    -7.7660 oh         1 STG      -0.641000
     30 O30          1.5690    -0.1920    -7.5470 oh         1 STG      -0.765000
     31 O31          2.7820     1.9230    -4.4840 o          1 STG      -0.696000
     32 O32          3.7640     0.1110    -4.9600 o          1 STG      -0.696000
     33 O33         -0.9040    -0.0730     8.5630 oh         1 STG      -0.667000
     34 H1           1.1990    -1.6210     0.3210 ha         1 STG       0.108000
     35 H2           0.6320    -1.2280    -2.0070 ha         1 STG       0.149000
     36 H4          -2.8780     0.9820    -0.8140 ha         1 STG       0.114000
     37 H61         -3.6550     0.5850     1.5830 hc         1 STG       0.043700
     38 H62         -2.5030     1.8790     1.8600 hc         1 STG       0.043700
     39 H71         -2.7770    -0.7500     3.3950 hc         1 STG       0.035200
     40 H72         -2.8930     0.8990     4.0070 hc         1 STG       0.035200
     41 H8          -0.4520     1.2480     3.3830 hc         1 STG       0.060700
     42 H9          -0.5530    -1.7750     2.8650 hc         1 STG       0.042700
     43 H111         1.8970     0.0500     2.6020 hc         1 STG       0.049200
     44 H112         1.8520    -1.6850     2.3710 hc         1 STG       0.049200
     45 H121         2.7850    -1.1300     4.6210 hc         1 STG       0.042700
     46 H122         1.3600    -2.1500     4.7000 hc         1 STG       0.042700
     47 H14         -0.9250    -1.1440     5.1710 hc         1 STG       0.047700
     48 H151        -1.1190     1.8150     5.9520 hc         1 STG       0.047700
     49 H152        -2.1790     0.4860     6.4020 hc         1 STG       0.047700
     50 H16          0.3000     1.3860     7.7350 h1         1 STG       0.040700
     51 H17          0.4670    -1.5780     6.9170 h1         1 STG       0.042700
     52 H181         1.6740     1.6530     4.1780 hc         1 STG       0.038033
     53 H182         1.2770     2.0740     5.8310 hc         1 STG       0.038033
     54 H183         2.7700     1.2150     5.4820 hc         1 STG       0.038033
     55 HO1          1.8560    -0.6470     8.5480 ho         1 STG       0.446000
     56 H21         -0.5340    -1.3280    -3.8970 h2         1 STG       0.030700
     57 H22         -1.7100     1.0520    -5.4360 h1         1 STG       0.063700
     58 H23         -0.4390    -1.5640    -6.3840 h1         1 STG       0.038700
     59 H24          0.5250     1.3410    -6.6060 h1         1 STG       0.043700
     60 H25          1.6120    -0.9900    -4.9360 h1         1 STG       0.027700
     61 HO8         -3.2760    -0.5030    -4.5180 ho         1 STG       0.508000
     62 HO9         -2.2500    -0.4880    -7.5800 ho         1 STG       0.434000
     63 HO3          0.9560    -0.3030    -8.3170 ho         1 STG       0.571000
     64 HO0         -1.5630     0.6060     8.8290 ho         1 STG       0.441000
@<TRIPOS>BOND
     1     1     2 ar  
     2     1    10 ar  
     3     1    34 1   
     4     2     3 ar  
     5     2    35 1   
     6     3     4 ar  
     7     3    20 1   
     8     4     5 ar  
     9     4    36 1   
    10     5     6 1   
    11     5    10 ar  
    12     6     7 1   
    13     6    37 1   
    14     6    38 1   
    15     7     8 1   
    16     7    39 1   
    17     7    40 1   
    18     8     9 1   
    19     8    14 1   
    20     8    41 1   
    21     9    10 1   
    22     9    11 1   
    23     9    42 1   
    24    11    12 1   
    25    11    43 1   
    26    11    44 1   
    27    12    13 1   
    28    12    45 1   
    29    12    46 1   
    30    13    14 1   
    31    13    17 1   
    32    13    18 1   
    33    14    15 1   
    34    14    47 1   
    35    15    16 1   
    36    15    48 1   
    37    15    49 1   
    38    16    17 1   
    39    16    33 1   
    40    16    50 1   
    41    17    19 1   
    42    17    51 1   
    43    18    52 1   
    44    18    53 1   
    45    18    54 1   
    46    19    55 1   
    47    20    21 1   
    48    21    22 1   
    49    21    27 1   
    50    21    56 1   
    51    22    23 1   
    52    22    28 1   
    53    22    57 1   
    54    23    24 1   
    55    23    29 1   
    56    23    58 1   
    57    24    25 1   
    58    24    30 1   
    59    24    59 1   
    60    25    26 1   
    61    25    27 1   
    62    25    60 1   
    63    26    31 1   
    64    26    32 1   
    65    28    61 1   
    66    29    62 1   
    67    30    63 1   
    68    33    64 1   
@<TRIPOS>SUBSTRUCTURE
     1 STG         1 TEMP              0 ****  ****    0 ROOT
