@<TRIPOS>MOLECULE
STG
   64    68     1     0     0
SMALL
bcc


@<TRIPOS>ATOM
      1 C1           0.4040    -0.8560     0.1430 ca         1 STG      -0.096000
      2 C2           0.1670    -0.5830    -1.1970 ca         1 STG      -0.175000
      3 C3          -0.9740     0.1310    -1.5440 ca         1 STG       0.165100
      4 C4          -1.8380     0.5570    -0.5460 ca         1 STG      -0.175000
      5 C5          -1.5890     0.2920     0.7960 ca         1 STG      -0.052300
      6 C6          -2.5600     0.8280     1.8180 c6         1 STG      -0.028100
      7 C7          -2.3440     0.2720     3.2160 c6         1 STG      -0.067400
      8 C8          -0.8590     0.2530     3.5490 c6         1 STG      -0.047700
      9 C9          -0.1570    -0.7500     2.6190 c6         1 STG       0.001600
     10 C10         -0.4440    -0.4300     1.1630 ca         1 STG      -0.113300
     11 C11          1.3390    -0.8950     2.9330 c6         1 STG      -0.072400
     12 C12          1.6140    -1.1710     4.4140 c6         1 STG      -0.058400
     13 C13          0.9320    -0.1410     5.3090 c5         1 STG      -0.038000
     14 C14         -0.5690    -0.1380     4.9850 c5         1 STG      -0.061700
     15 C15         -1.1950     0.6630     6.1280 c5         1 STG      -0.098400
     16 C16         -0.2730     0.3830     7.3400 c5         1 STG       0.098100
     17 C17          0.8560    -0.5080     6.7910 c5         1 STG       0.153100
     18 C18          1.5860     1.2340     5.1310 c3         1 STG      -0.077100
     19 O19          2.0890    -0.3640     7.4460 oh         1 STG      -0.588800
     20 O20         -1.3220     0.4640    -2.8170 os         1 STG      -0.331900
     21 C21         -0.6680    -0.1340    -3.8890 c6         1 STG       0.312900
     22 C22         -1.5460     0.0470    -5.1250 c6         1 STG       0.078100
     23 C23         -0.8140    -0.4990    -6.3480 c6         1 STG       0.145100
     24 C24          0.5690     0.1240    -6.4520 c6         1 STG       0.150100
     25 C25          1.3080    -0.0530    -5.1140 c6         1 STG      -0.041900
     26 C26          2.7150     0.5770    -5.1440 c          1 STG       0.943600
     27 O27          0.5570     0.5110    -4.0640 os         1 STG      -0.381600
     28 O28         -2.7590    -0.6530    -5.0070 oh         1 STG      -0.612800
     29 O29         -1.5200    -0.2290    -7.5330 oh         1 STG      -0.578800
     30 O30          1.2720    -0.4820    -7.5000 oh         1 STG      -0.642800
     31 O31          3.1000     1.2130    -4.1630 o          1 STG      -0.801300
     32 O32          3.3610     0.3530    -6.2020 o          1 STG      -0.801300
     33 O33         -0.8960    -0.2870     8.4160 oh         1 STG      -0.604800
     34 H1           1.2980    -1.4160     0.3850 ha         1 STG       0.126000
     35 H2           0.8860    -0.9120    -1.9340 ha         1 STG       0.167000
     36 H4          -2.7290     1.1110    -0.8250 ha         1 STG       0.132000
     37 H61         -3.5830     0.6390     1.4840 hc         1 STG       0.043700
     38 H62         -2.4550     1.9180     1.8480 hc         1 STG       0.043700
     39 H71         -2.7420    -0.7460     3.2930 hc         1 STG       0.035200
     40 H72         -2.8970     0.8800     3.9350 hc         1 STG       0.035200
     41 H8          -0.4610     1.2590     3.3610 hc         1 STG       0.060700
     42 H9          -0.6130    -1.7270     2.8380 hc         1 STG       0.042700
     43 H111         1.8730    -0.0000     2.6020 hc         1 STG       0.049200
     44 H112         1.7570    -1.7220     2.3550 hc         1 STG       0.049200
     45 H121         2.6930    -1.1960     4.5880 hc         1 STG       0.042700
     46 H122         1.2320    -2.1660     4.6680 hc         1 STG       0.042700
     47 H14         -0.9080    -1.1790     5.0970 hc         1 STG       0.047700
     48 H151        -1.2150     1.7320     5.8970 hc         1 STG       0.047700
     49 H152        -2.2240     0.3630     6.3330 hc         1 STG       0.047700
     50 H16          0.1690     1.3240     7.6920 h1         1 STG       0.040700
     51 H17          0.5080    -1.5530     6.8540 h1         1 STG       0.042700
     52 H181         1.5890     1.5520     4.0890 hc         1 STG       0.038033
     53 H182         1.0820     2.0190     5.6960 hc         1 STG       0.038033
     54 H183         2.6250     1.2040     5.4590 hc         1 STG       0.038033
     55 HO1          1.9840    -0.6540     8.3570 ho         1 STG       0.407000
     56 H21         -0.5140    -1.2110    -3.6980 h2         1 STG       0.030700
     57 H22         -1.7140     1.1250    -5.2670 h1         1 STG       0.063700
     58 H23         -0.6830    -1.5850    -6.2100 h1         1 STG       0.038700
     59 H24          0.4440     1.2080    -6.6250 h1         1 STG       0.043700
     60 H25          1.4380    -1.1370    -4.9440 h1         1 STG       0.027700
     61 HO8         -3.3340    -0.1770    -4.4010 ho         1 STG       0.409000
     62 HO9         -2.3870    -0.6430    -7.4660 ho         1 STG       0.395000
     63 HO3          2.2110    -0.2620    -7.2920 ho         1 STG       0.472000
     64 HO0         -1.5250     0.3160     8.8240 ho         1 STG       0.402000
@<TRIPOS>BOND
     1     1     2 ar  
     2     1    10 ar  
     3     1    34 1   
     4     2     3 ar  
     5     2    35 1   
     6     3     4 ar  
     7     3    20 1   
     8     4     5 ar  
     9     4    36 1   
    10     5     6 1   
    11     5    10 ar  
    12     6     7 1   
    13     6    37 1   
    14     6    38 1   
    15     7     8 1   
    16     7    39 1   
    17     7    40 1   
    18     8     9 1   
    19     8    14 1   
    20     8    41 1   
    21     9    10 1   
    22     9    11 1   
    23     9    42 1   
    24    11    12 1   
    25    11    43 1   
    26    11    44 1   
    27    12    13 1   
    28    12    45 1   
    29    12    46 1   
    30    13    14 1   
    31    13    17 1   
    32    13    18 1   
    33    14    15 1   
    34    14    47 1   
    35    15    16 1   
    36    15    48 1   
    37    15    49 1   
    38    16    17 1   
    39    16    33 1   
    40    16    50 1   
    41    17    19 1   
    42    17    51 1   
    43    18    52 1   
    44    18    53 1   
    45    18    54 1   
    46    19    55 1   
    47    20    21 1   
    48    21    22 1   
    49    21    27 1   
    50    21    56 1   
    51    22    23 1   
    52    22    28 1   
    53    22    57 1   
    54    23    24 1   
    55    23    29 1   
    56    23    58 1   
    57    24    25 1   
    58    24    30 1   
    59    24    59 1   
    60    25    26 1   
    61    25    27 1   
    62    25    60 1   
    63    26    31 1   
    64    26    32 1   
    65    28    61 1   
    66    29    62 1   
    67    30    63 1   
    68    33    64 1   
@<TRIPOS>SUBSTRUCTURE
     1 STG         1 TEMP              0 ****  ****    0 ROOT
