@<TRIPOS>MOLECULE
STH
   21    22     1     0     0
SMALL
bcc


@<TRIPOS>ATOM
      1 C8           0.4090    -1.5040    -0.1550 c6         1 STH       0.313500
      2 O8           0.5760    -2.1200     1.0850 oh         1 STH      -0.574800
      3 C1          -0.7680    -0.5690    -0.0720 ca         1 STH      -0.166300
      4 C2          -0.6630     0.8190     0.0490 ca         1 STH       0.164100
      5 C3          -1.8130     1.6090     0.0850 ca         1 STH      -0.156000
      6 C4          -3.0630     1.0250     0.0170 ca         1 STH      -0.085000
      7 C5          -3.1870    -0.3570    -0.0860 ca         1 STH      -0.162000
      8 C6          -2.0440    -1.1330    -0.1290 ca         1 STH      -0.069000
      9 C7           1.6640     0.7610     0.4530 c6         1 STH       0.495400
     10 O2           0.5110     1.4880     0.1050 os         1 STH      -0.302900
     11 N7           2.7630     1.6610     0.3540 n8         1 STH      -0.878800
     12 S7           1.9040    -0.6160    -0.7130 ss         1 STH      -0.411200
     13 H8           0.2210    -2.2350    -0.9480 h2         1 STH       0.073700
     14 HO8          1.2160    -2.8340     0.9880 ho         1 STH       0.418000
     15 H3          -1.7100     2.6830     0.1670 ha         1 STH       0.150000
     16 H4          -3.9450     1.6530     0.0470 ha         1 STH       0.136000
     17 H5          -4.1630    -0.8210    -0.1380 ha         1 STH       0.137000
     18 H6          -2.1310    -2.2090    -0.2230 ha         1 STH       0.132000
     19 H7           1.5070     0.3190     1.4470 h3         1 STH       0.048700
     20 HN71         2.7410     2.3120     1.1310 hn         1 STH       0.369300
     21 HN72         3.6370     1.1570     0.4280 hn         1 STH       0.369300
@<TRIPOS>BOND
     1     1     2 1   
     2     1     3 1   
     3     1    12 1   
     4     1    13 1   
     5     2    14 1   
     6     3     4 ar  
     7     3     8 ar  
     8     4     5 ar  
     9     4    10 1   
    10     5     6 ar  
    11     5    15 1   
    12     6     7 ar  
    13     6    16 1   
    14     7     8 ar  
    15     7    17 1   
    16     8    18 1   
    17     9    10 1   
    18     9    11 1   
    19     9    12 1   
    20     9    19 1   
    21    11    20 1   
    22    11    21 1   
@<TRIPOS>SUBSTRUCTURE
     1 STH         1 TEMP              0 ****  ****    0 ROOT
