@<TRIPOS>MOLECULE
STH
   21    22     1     0     0
SMALL
No Charge or Current Charge


@<TRIPOS>ATOM
      1 C8           0.3940    -1.5340    -0.1690 c6         1 STH       0.384600
      2 O8           0.6490    -2.1250     1.0960 oh         1 STH      -0.637000
      3 C1          -0.8080    -0.5940    -0.0770 ca         1 STH      -0.166300
      4 C2          -0.6730     0.8120     0.0690 ca         1 STH       0.164100
      5 C3          -1.8200     1.6230     0.1040 ca         1 STH      -0.138000
      6 C4          -3.1010     1.0560     0.0170 ca         1 STH      -0.067000
      7 C5          -3.2400    -0.3340    -0.1130 ca         1 STH      -0.144000
      8 C6          -2.1000    -1.1540    -0.1630 ca         1 STH      -0.051000
      9 C7           1.7170     0.6960     0.4590 c6         1 STH       0.566500
     10 O2           0.5490     1.4450     0.1540 os         1 STH      -0.326100
     11 N7           2.7890     1.6500     0.2950 n8         1 STH      -0.989200
     12 S7           1.9040    -0.6720    -0.7060 ss         1 STH      -0.507000
     13 H8           0.1790    -2.3140    -0.9180 h2         1 STH       0.073700
     14 HO8          1.4030    -2.7340     0.9530 ho         1 STH       0.457000
     15 H3          -1.7130     2.7000     0.2050 ha         1 STH       0.132000
     16 H4          -3.9840     1.6920     0.0510 ha         1 STH       0.118000
     17 H5          -4.2310    -0.7780    -0.1810 ha         1 STH       0.119000
     18 H6          -2.2210    -2.2300    -0.2720 ha         1 STH       0.114000
     19 H7           1.6760     0.3310     1.4950 h3         1 STH       0.048700
     20 HN71         2.6440     2.3730     1.0030 hn         1 STH       0.424500
     21 HN72         3.6460     1.1800     0.5920 hn         1 STH       0.424500
@<TRIPOS>BOND
     1     1     2 1   
     2     1     3 1   
     3     1    12 1   
     4     1    13 1   
     5     2    14 1   
     6     3     4 ar  
     7     3     8 ar  
     8     4     5 ar  
     9     4    10 1   
    10     5     6 ar  
    11     5    15 1   
    12     6     7 ar  
    13     6    16 1   
    14     7     8 ar  
    15     7    17 1   
    16     8    18 1   
    17     9    10 1   
    18     9    11 1   
    19     9    12 1   
    20     9    19 1   
    21    11    20 1   
    22    11    21 1   
@<TRIPOS>SUBSTRUCTURE
     1 STH         1 TEMP              0 ****  ****    0 ROOT
