@<TRIPOS>MOLECULE
STI
   68    72     1     0     0
SMALL
No Charge or Current Charge


@<TRIPOS>ATOM
      1 C1           1.5260    -1.1860     9.6140 ca         1 STI      -0.174000
      2 C6           1.1010    -0.7530     8.3500 ca         1 STI      -0.028000
      3 C5           2.0390    -0.6900     7.2850 cp         1 STI      -0.215500
      4 C4           3.3690    -1.0860     7.5840 ca         1 STI       0.360900
      5 N3           3.7800    -1.5050     8.8030 nb         1 STI      -0.670000
      6 C2           2.8670    -1.5490     9.7980 ca         1 STI       0.349900
      7 C7           1.6460    -0.2390     5.9090 cp         1 STI       0.234500
      8 C12          2.5830     0.1470     4.9190 ca         1 STI      -0.267000
      9 C11          2.1000     0.5570     3.6670 ca         1 STI       0.148900
     10 N10          0.7820     0.5860     3.4000 nb         1 STI      -0.232000
     11 C9          -0.0380     0.1970     4.3930 ca         1 STI       0.393900
     12 N8           0.3290    -0.1920     5.6240 nb         1 STI      -0.259000
     13 N13         -1.4090     0.2450     4.1880 nu         1 STI      -0.929900
     14 C14         -2.2330     0.4920     3.0840 ca         1 STI       0.345000
     15 C19         -3.5170     1.0480     3.2840 ca         1 STI      -0.155300
     16 C18         -4.3480     1.2820     2.1720 ca         1 STI      -0.061000
     17 C17         -3.9190     0.9580     0.8750 ca         1 STI      -0.148000
     18 C16         -2.6490     0.3830     0.6680 ca         1 STI       0.003000
     19 C15         -1.8210     0.1540     1.7820 ca         1 STI      -0.194000
     20 N21         -2.1440     0.0150    -0.6100 ns         1 STI      -0.144000
     21 C22         -2.7020     0.0310    -1.8840 c          1 STI       0.620700
     22 C23         -1.7940    -0.4410    -3.0080 ca         1 STI      -0.155600
     23 C25         -2.2830    -0.4590    -4.3360 ca         1 STI      -0.075000
     24 C26         -1.4690    -0.8890    -5.3970 ca         1 STI      -0.107500
     25 C27         -0.1500    -1.3100    -5.1600 ca         1 STI      -0.062300
     26 C28          0.3470    -1.2960    -3.8450 ca         1 STI      -0.107500
     27 C29         -0.4620    -0.8670    -2.7780 ca         1 STI      -0.075000
     28 C46          0.7300    -1.7740    -6.3200 c3         1 STI       0.211100
     29 N48          1.1070    -0.6820    -7.2480 n3         1 STI      -0.721600
     30 C53          1.8340    -1.1830    -8.4550 c6         1 STI       0.163800
     31 C52          2.2030    -0.0330    -9.4480 c6         1 STI       0.163300
     32 N51          2.9930     1.0530    -8.7920 n3         1 STI      -0.717600
     33 C54          3.3670     2.1340    -9.7270 c3         1 STI       0.153100
     34 C50          2.2670     1.5550    -7.5850 c6         1 STI       0.163300
     35 C49          1.8970     0.4070    -6.5920 c6         1 STI       0.163800
     36 O29         -3.8510     0.3950    -2.1090 o          1 STI      -0.578100
     37 C20         -4.0220     1.4160     4.6800 c3         1 STI      -0.044800
     38 H11          0.8300    -1.2400    10.4460 ha         1 STI       0.127000
     39 H61          0.0600    -0.4660     8.2050 ha         1 STI       0.138000
     40 H41          4.1400    -1.0840     6.8160 h4         1 STI       0.020100
     41 H21          3.2230    -1.8890    10.7710 h4         1 STI       0.021100
     42 H121         3.6520     0.1480     5.1070 ha         1 STI       0.138000
     43 H111         2.7740     0.8700     2.8710 h4         1 STI       0.023100
     44 H131        -1.9260     0.1840     5.0620 hn         1 STI       0.513000
     45 H181        -5.3350     1.7180     2.3100 ha         1 STI       0.114000
     46 H171        -4.5920     1.1610     0.0490 ha         1 STI       0.146000
     47 H151        -0.8530    -0.3120     1.6290 ha         1 STI       0.145000
     48 H211        -1.1920    -0.3220    -0.5840 hn         1 STI       0.155000
     49 H251        -3.3000    -0.1380    -4.5520 ha         1 STI       0.125000
     50 H261        -1.8640    -0.8910    -6.4110 ha         1 STI       0.122500
     51 H281         1.3680    -1.6170    -3.6460 ha         1 STI       0.122500
     52 H291        -0.0310    -0.8730    -1.7790 ha         1 STI       0.125000
     53 H461         0.1780    -2.5510    -6.8680 h1         1 STI       0.041700
     54 H462         1.6330    -2.2540    -5.9180 h1         1 STI       0.041700
     55 H531         1.2200    -1.9230    -8.9890 h1         1 STI       0.039450
     56 H532         2.7610    -1.6930    -8.1530 h1         1 STI       0.039450
     57 H521         1.2720     0.3780    -9.8670 h1         1 STI       0.038450
     58 H522         2.7690    -0.4630   -10.2870 h1         1 STI       0.038450
     59 H541         3.9890     2.8860    -9.2220 h1         1 STI       0.030700
     60 H542         3.9420     1.7340   -10.5730 h1         1 STI       0.030700
     61 H543         2.4740     2.6360   -10.1240 h1         1 STI       0.030700
     62 H501         2.8820     2.2960    -7.0520 h1         1 STI       0.038450
     63 H502         1.3410     2.0660    -7.8880 h1         1 STI       0.038450
     64 H491         1.3310     0.8450    -5.7570 h1         1 STI       0.039450
     65 H492         2.8260    -0.0030    -6.1690 h1         1 STI       0.039450
     66 H201        -4.1230     0.5250     5.3120 hc         1 STI       0.041033
     67 H202        -3.3370     2.1120     5.1790 hc         1 STI       0.041033
     68 H203        -5.0050     1.9000     4.6420 hc         1 STI       0.041033
@<TRIPOS>BOND
     1     1     2 ar  
     2     1     6 ar  
     3     1    38 1   
     4     2     3 ar  
     5     2    39 1   
     6     3     4 ar  
     7     3     7 1   
     8     4     5 ar  
     9     4    40 1   
    10     5     6 ar  
    11     6    41 1   
    12     7     8 ar  
    13     7    12 ar  
    14     8     9 ar  
    15     8    42 1   
    16     9    10 ar  
    17     9    43 1   
    18    10    11 ar  
    19    11    12 ar  
    20    11    13 1   
    21    13    14 1   
    22    13    44 1   
    23    14    15 ar  
    24    14    19 ar  
    25    15    16 ar  
    26    15    37 1   
    27    16    17 ar  
    28    16    45 1   
    29    17    18 ar  
    30    17    46 1   
    31    18    19 ar  
    32    18    20 1   
    33    19    47 1   
    34    20    21 1   
    35    20    48 1   
    36    21    22 1   
    37    21    36 2   
    38    22    23 ar  
    39    22    27 ar  
    40    23    24 ar  
    41    23    49 1   
    42    24    25 ar  
    43    24    50 1   
    44    25    26 ar  
    45    25    28 1   
    46    26    27 ar  
    47    26    51 1   
    48    27    52 1   
    49    28    29 1   
    50    28    53 1   
    51    28    54 1   
    52    29    30 1   
    53    29    35 1   
    54    30    31 1   
    55    30    55 1   
    56    30    56 1   
    57    31    32 1   
    58    31    57 1   
    59    31    58 1   
    60    32    33 1   
    61    32    34 1   
    62    33    59 1   
    63    33    60 1   
    64    33    61 1   
    65    34    35 1   
    66    34    62 1   
    67    34    63 1   
    68    35    64 1   
    69    35    65 1   
    70    37    66 1   
    71    37    67 1   
    72    37    68 1   
@<TRIPOS>SUBSTRUCTURE
     1 STI         1 TEMP              0 ****  ****    0 ROOT
