@<TRIPOS>MOLECULE
STI
   68    72     1     0     0
SMALL
bcc


@<TRIPOS>ATOM
      1 C1           2.0310     0.0640     9.1780 ca         1 STI      -0.257300
      2 C6           1.5090     0.1660     7.9010 ca         1 STI      -0.046000
      3 C5           2.2940    -0.2170     6.8160 cp         1 STI      -0.280800
      4 C4           3.5720    -0.7040     7.0880 ca         1 STI       0.426200
      5 N3           4.0760    -0.8100     8.3090 nb         1 STI      -0.670000
      6 C2           3.3190    -0.4280     9.3310 ca         1 STI       0.415200
      7 C7           1.7810    -0.1240     5.4370 cp         1 STI       0.562800
      8 C12          2.6250    -0.0890     4.3250 ca         1 STI      -0.415600
      9 C11          2.0070    -0.0120     3.0940 ca         1 STI       0.477200
     10 N10          0.6900     0.0390     2.9410 nb         1 STI      -0.758000
     11 C9          -0.0270     0.0210     4.0590 ca         1 STI       0.919900
     12 N8           0.4660    -0.0640     5.2960 nb         1 STI      -0.785000
     13 N13         -1.3860     0.0970     4.0090 nu         1 STI      -0.736300
     14 C14         -2.2710     0.1740     2.9390 ca         1 STI       0.206600
     15 C19         -3.6060     0.5110     3.2400 ca         1 STI      -0.155300
     16 C18         -4.5130     0.5610     2.1940 ca         1 STI      -0.079000
     17 C17         -4.1630     0.3110     0.8740 ca         1 STI      -0.166000
     18 C16         -2.8400    -0.0050     0.5890 ca         1 STI       0.095600
     19 C15         -1.9050    -0.0780     1.6210 ca         1 STI      -0.212000
     20 N21         -2.3610    -0.2970    -0.6950 ns         1 STI      -0.470100
     21 C22         -2.8900     0.0650    -1.8910 c          1 STI       0.687700
     22 C23         -2.1070    -0.3780    -3.0820 ca         1 STI      -0.155600
     23 C25         -2.1770     0.3960    -4.2410 ca         1 STI      -0.093000
     24 C26         -1.4630     0.0350    -5.3690 ca         1 STI      -0.125500
     25 C27         -0.6860    -1.1230    -5.3820 ca         1 STI      -0.062300
     26 C28         -0.6390    -1.9040    -4.2350 ca         1 STI      -0.125500
     27 C29         -1.3370    -1.5370    -3.0920 ca         1 STI      -0.093000
     28 C46          0.0780    -1.5040    -6.6220 c3         1 STI       0.211100
     29 N48          0.9300    -0.4250    -7.0770 n3         1 STI      -0.721600
     30 C53          1.4530    -0.6690    -8.4070 c6         1 STI       0.163800
     31 C52          2.2720     0.5180    -8.8780 c6         1 STI       0.163300
     32 N51          3.3590     0.7880    -7.9590 n3         1 STI      -0.717600
     33 C54          4.1840     1.8830    -8.4130 c3         1 STI       0.153100
     34 C50          2.8390     1.0250    -6.6280 c6         1 STI       0.163300
     35 C49          2.0170    -0.1590    -6.1550 c6         1 STI       0.163800
     36 O29         -3.9130     0.7180    -2.0130 o          1 STI      -0.578100
     37 C20         -4.0390     0.8220     4.6440 c3         1 STI      -0.044800
     38 H11          1.4530     0.3580    10.0440 ha         1 STI       0.145000
     39 H61          0.5090     0.5450     7.7410 ha         1 STI       0.156000
     40 H41          4.2150    -1.0410     6.2820 h4         1 STI       0.020100
     41 H21          3.7560    -0.5200    10.3190 h4         1 STI       0.021100
     42 H121         3.7010    -0.1060     4.4050 ha         1 STI       0.156000
     43 H111         2.5980     0.0140     2.1860 h4         1 STI       0.023100
     44 H131        -1.8010     0.1160     4.9280 hn         1 STI       0.457800
     45 H181        -5.5430     0.8090     2.4170 ha         1 STI       0.132000
     46 H171        -4.9160     0.3600     0.1050 ha         1 STI       0.164000
     47 H151        -0.8790    -0.3220     1.3890 ha         1 STI       0.163000
     48 H211        -1.4380    -0.7020    -0.7150 hn         1 STI       0.321500
     49 H251        -2.7810     1.2940    -4.2530 ha         1 STI       0.143000
     50 H261        -1.5020     0.6600    -6.2520 ha         1 STI       0.140500
     51 H281        -0.0440    -2.8090    -4.2260 ha         1 STI       0.140500
     52 H291        -1.2850    -2.1790    -2.2220 ha         1 STI       0.143000
     53 H461        -0.6350    -1.7280    -7.4200 h1         1 STI       0.041700
     54 H462         0.6420    -2.4340    -6.4370 h1         1 STI       0.041700
     55 H531         0.6200    -0.8230    -9.0980 h1         1 STI       0.039450
     56 H532         2.0790    -1.5780    -8.4400 h1         1 STI       0.039450
     57 H521         1.6050     1.3920    -8.9880 h1         1 STI       0.038450
     58 H522         2.6830     0.3000    -9.8670 h1         1 STI       0.038450
     59 H541         5.0190     2.0340    -7.7260 h1         1 STI       0.030700
     60 H542         4.5980     1.6590    -9.3970 h1         1 STI       0.030700
     61 H543         3.6370     2.8360    -8.4890 h1         1 STI       0.030700
     62 H501         3.6720     1.1770    -5.9380 h1         1 STI       0.038450
     63 H502         2.2140     1.9350    -6.5920 h1         1 STI       0.038450
     64 H491         1.6110     0.0660    -5.1670 h1         1 STI       0.039450
     65 H492         2.6760    -1.0380    -6.0450 h1         1 STI       0.039450
     66 H201        -3.8900    -0.0200     5.3260 hc         1 STI       0.041033
     67 H202        -3.4940     1.6730     5.0570 hc         1 STI       0.041033
     68 H203        -5.0990     1.0680     4.6710 hc         1 STI       0.041033
@<TRIPOS>BOND
     1     1     2 ar  
     2     1     6 ar  
     3     1    38 1   
     4     2     3 ar  
     5     2    39 1   
     6     3     4 ar  
     7     3     7 1   
     8     4     5 ar  
     9     4    40 1   
    10     5     6 ar  
    11     6    41 1   
    12     7     8 ar  
    13     7    12 ar  
    14     8     9 ar  
    15     8    42 1   
    16     9    10 ar  
    17     9    43 1   
    18    10    11 ar  
    19    11    12 ar  
    20    11    13 1   
    21    13    14 1   
    22    13    44 1   
    23    14    15 ar  
    24    14    19 ar  
    25    15    16 ar  
    26    15    37 1   
    27    16    17 ar  
    28    16    45 1   
    29    17    18 ar  
    30    17    46 1   
    31    18    19 ar  
    32    18    20 1   
    33    19    47 1   
    34    20    21 1   
    35    20    48 1   
    36    21    22 1   
    37    21    36 2   
    38    22    23 ar  
    39    22    27 ar  
    40    23    24 ar  
    41    23    49 1   
    42    24    25 ar  
    43    24    50 1   
    44    25    26 ar  
    45    25    28 1   
    46    26    27 ar  
    47    26    51 1   
    48    27    52 1   
    49    28    29 1   
    50    28    53 1   
    51    28    54 1   
    52    29    30 1   
    53    29    35 1   
    54    30    31 1   
    55    30    55 1   
    56    30    56 1   
    57    31    32 1   
    58    31    57 1   
    59    31    58 1   
    60    32    33 1   
    61    32    34 1   
    62    33    59 1   
    63    33    60 1   
    64    33    61 1   
    65    34    35 1   
    66    34    62 1   
    67    34    63 1   
    68    35    64 1   
    69    35    65 1   
    70    37    66 1   
    71    37    67 1   
    72    37    68 1   
@<TRIPOS>SUBSTRUCTURE
     1 STI         1 TEMP              0 ****  ****    0 ROOT
