@<TRIPOS>MOLECULE
STJ
   40    42     1     0     0
SMALL
No Charge or Current Charge


@<TRIPOS>ATOM
      1 F1          -6.7460     1.6160    -1.3500 f          1 STJ      -0.110333
      2 C2          -7.0460     1.1000    -0.1360 c3         1 STJ       0.512000
      3 F3          -6.7460     2.0310     0.7990 f          1 STJ      -0.110333
      4 F4          -8.3860     0.9280    -0.1030 f          1 STJ      -0.110333
      5 O5          -6.3670    -0.1510     0.1060 os         1 STJ      -0.397100
      6 C6          -4.9900    -0.2950     0.1290 ca         1 STJ       0.056100
      7 C7          -4.0880     0.7740    -0.0760 ca         1 STJ      -0.068500
      8 C9          -2.7000     0.5420    -0.0370 ca         1 STJ      -0.147000
      9 C11         -2.1930    -0.7490     0.1980 ca         1 STJ       0.325000
     10 C12         -3.0930    -1.8040     0.4180 ca         1 STJ      -0.147000
     11 C14         -4.4810    -1.5810     0.3790 ca         1 STJ      -0.068500
     12 N16         -0.8200    -1.0150     0.2590 nu         1 STJ      -0.933900
     13 C18          0.3090    -0.4210    -0.2930 ca         1 STJ       0.383900
     14 N19          0.1490     0.5050    -1.2530 nb         1 STJ      -0.248000
     15 C20          1.2760     1.0350    -1.7670 ca         1 STJ       0.168900
     16 N22          2.5400     0.7190    -1.4200 nb         1 STJ      -0.205000
     17 C23          2.7140    -0.2250    -0.4720 cp         1 STJ       0.211500
     18 C24          1.5800    -0.8280     0.1260 ca         1 STJ      -0.277000
     19 C26          4.1270    -0.5810    -0.0970 cp         1 STJ      -0.170500
     20 C27          5.2050     0.3130    -0.3520 ca         1 STJ      -0.010000
     21 C29          6.5380    -0.0040    -0.0070 ca         1 STJ      -0.162600
     22 C30          6.8030    -1.2500     0.6080 ca         1 STJ      -0.070000
     23 C32          5.7560    -2.1480     0.8640 ca         1 STJ      -0.129000
     24 C34          4.4370    -1.8210     0.5180 ca         1 STJ      -0.070000
     25 C36          7.6370     0.9920    -0.3020 c          1 STJ       0.617700
     26 O37          7.4250     2.0710    -0.8320 o          1 STJ      -0.595100
     27 N38          8.9040     0.6700     0.0370 nt         1 STJ      -0.606000
     28 H7          -4.4360     1.7860    -0.2610 ha         1 STJ       0.135000
     29 H9          -2.0260     1.3810    -0.1720 ha         1 STJ       0.138000
     30 H12         -2.7190    -2.8060     0.6110 ha         1 STJ       0.138000
     31 H14         -5.1670    -2.4080     0.5430 ha         1 STJ       0.135000
     32 HN16        -0.6000    -1.8730     0.7640 hn         1 STJ       0.498000
     33 H20          1.1540     1.7930    -2.5390 h5         1 STJ       0.053100
     34 H24          1.6840    -1.5740     0.9050 ha         1 STJ       0.130000
     35 H27          5.0000     1.2750    -0.8200 ha         1 STJ       0.160000
     36 H30          7.8120    -1.5370     0.8900 ha         1 STJ       0.113000
     37 H32          5.9700    -3.1060     1.3320 ha         1 STJ       0.119000
     38 H34          3.6560    -2.5500     0.7170 ha         1 STJ       0.114000
     39 HN38         9.1040    -0.2150     0.4750 hn         1 STJ       0.314500
     40 HN3A         9.6460     1.3260    -0.1550 hn         1 STJ       0.314500
@<TRIPOS>BOND
     1     1     2 1   
     2     2     3 1   
     3     2     4 1   
     4     2     5 1   
     5     5     6 1   
     6     6     7 ar  
     7     6    11 ar  
     8     7     8 ar  
     9     7    28 1   
    10     8     9 ar  
    11     8    29 1   
    12     9    10 ar  
    13     9    12 1   
    14    10    11 ar  
    15    10    30 1   
    16    11    31 1   
    17    12    13 1   
    18    12    32 1   
    19    13    14 ar  
    20    13    18 ar  
    21    14    15 ar  
    22    15    16 ar  
    23    15    33 1   
    24    16    17 ar  
    25    17    18 ar  
    26    17    19 1   
    27    18    34 1   
    28    19    20 ar  
    29    19    24 ar  
    30    20    21 ar  
    31    20    35 1   
    32    21    22 ar  
    33    21    25 1   
    34    22    23 ar  
    35    22    36 1   
    36    23    24 ar  
    37    23    37 1   
    38    24    38 1   
    39    25    26 2   
    40    25    27 1   
    41    27    39 1   
    42    27    40 1   
@<TRIPOS>SUBSTRUCTURE
     1 STJ         1 TEMP              0 ****  ****    0 ROOT
