@<TRIPOS>MOLECULE
STJ
   40    42     1     0     0
SMALL
bcc


@<TRIPOS>ATOM
      1 F1          -6.9080    -1.1600    -0.9980 f          1 STJ      -0.231633
      2 C2          -6.9600     0.1150    -0.6050 c3         1 STJ       0.852700
      3 F3          -6.5960     0.8550    -1.6550 f          1 STJ      -0.231633
      4 F4          -8.2160     0.4080    -0.3060 f          1 STJ      -0.231633
      5 O5          -6.2170     0.3540     0.4810 os         1 STJ      -0.373900
      6 C6          -4.8520     0.0930     0.4020 ca         1 STJ       0.056100
      7 C7          -3.9850     1.0870    -0.0080 ca         1 STJ      -0.086500
      8 C9          -2.6170     0.8560    -0.0330 ca         1 STJ      -0.165000
      9 C11         -2.1110    -0.3860     0.3570 ca         1 STJ       0.186600
     10 C12         -3.0090    -1.3750     0.7760 ca         1 STJ      -0.165000
     11 C14         -4.3700    -1.1430     0.8000 ca         1 STJ      -0.086500
     12 N16         -0.7630    -0.7300     0.3810 nu         1 STJ      -0.740300
     13 C18          0.3440    -0.0580    -0.0270 ca         1 STJ       0.712200
     14 N19          0.2410     1.1620    -0.5460 nb         1 STJ      -0.774000
     15 C20          1.3730     1.7450    -0.9120 ca         1 STJ       0.694900
     16 N22          2.5890     1.2530    -0.8330 nb         1 STJ      -0.731000
     17 C23          2.7030     0.0170    -0.3190 cp         1 STJ       0.539800
     18 C24          1.5970    -0.6790     0.1140 ca         1 STJ      -0.425600
     19 C26          4.0670    -0.5430    -0.2290 cp         1 STJ      -0.170500
     20 C27          5.1670     0.3100    -0.2480 ca         1 STJ      -0.028000
     21 C29          6.4600    -0.1850    -0.1340 ca         1 STJ      -0.162600
     22 C30          6.6600    -1.5600    -0.0400 ca         1 STJ      -0.088000
     23 C32          5.5730    -2.4210    -0.0480 ca         1 STJ      -0.147000
     24 C34          4.2850    -1.9180    -0.1350 ca         1 STJ      -0.088000
     25 C36          7.5910     0.7970    -0.1620 c          1 STJ       0.684700
     26 O37          7.4550     1.8970    -0.6770 o          1 STJ      -0.595100
     27 N38          8.7390     0.3940     0.4020 nt         1 STJ      -0.673000
     28 H7          -4.3610     2.0600    -0.2990 ha         1 STJ       0.153000
     29 H9          -1.9550     1.6420    -0.3540 ha         1 STJ       0.156000
     30 H12         -2.6360    -2.3420     1.0930 ha         1 STJ       0.156000
     31 H14         -5.0430    -1.9190     1.1400 ha         1 STJ       0.153000
     32 HN16        -0.5770    -1.6500     0.7500 hn         1 STJ       0.442800
     33 H20          1.2780     2.7430    -1.3280 h5         1 STJ       0.053100
     34 H24          1.6740    -1.6610     0.5610 ha         1 STJ       0.148000
     35 H27          5.0090     1.3760    -0.3380 ha         1 STJ       0.178000
     36 H30          7.6580    -1.9780     0.0130 ha         1 STJ       0.131000
     37 H32          5.7300    -3.4900     0.0030 ha         1 STJ       0.137000
     38 H34          3.4540    -2.6110    -0.1520 ha         1 STJ       0.132000
     39 HN38         8.8160    -0.4550     0.9350 hn         1 STJ       0.314500
     40 HN3A         9.5330     1.0130     0.4150 hn         1 STJ       0.314500
@<TRIPOS>BOND
     1     1     2 1   
     2     2     3 1   
     3     2     4 1   
     4     2     5 1   
     5     5     6 1   
     6     6     7 ar  
     7     6    11 ar  
     8     7     8 ar  
     9     7    28 1   
    10     8     9 ar  
    11     8    29 1   
    12     9    10 ar  
    13     9    12 1   
    14    10    11 ar  
    15    10    30 1   
    16    11    31 1   
    17    12    13 1   
    18    12    32 1   
    19    13    14 ar  
    20    13    18 ar  
    21    14    15 ar  
    22    15    16 ar  
    23    15    33 1   
    24    16    17 ar  
    25    17    18 ar  
    26    17    19 1   
    27    18    34 1   
    28    19    20 ar  
    29    19    24 ar  
    30    20    21 ar  
    31    20    35 1   
    32    21    22 ar  
    33    21    25 1   
    34    22    23 ar  
    35    22    36 1   
    36    23    24 ar  
    37    23    37 1   
    38    24    38 1   
    39    25    26 2   
    40    25    27 1   
    41    27    39 1   
    42    27    40 1   
@<TRIPOS>SUBSTRUCTURE
     1 STJ         1 TEMP              0 ****  ****    0 ROOT
