@<TRIPOS>MOLECULE
STK
   25    27     1     0     0
SMALL
bcc


@<TRIPOS>ATOM
      1 C02         30.9250    66.8200    71.9320 ca         1 STK       0.019400
      2 C03         30.8780    66.3190    73.2230 ca         1 STK      -0.100000
      3 C04         29.8520    66.7240    74.0660 ca         1 STK      -0.124000
      4 C05         28.8940    67.6270    73.6310 ca         1 STK      -0.093000
      5 C06         28.9480    68.1000    72.3240 ca         1 STK      -0.019100
      6 C07         29.9610    67.7000    71.4620 ca         1 STK      -0.082000
      7 C09         26.2490    68.4530    72.0210 cc         1 STK       0.415600
      8 C12         22.8950    69.2710    72.7690 c          1 STK       0.686300
      9 C16         23.8240    67.2760    72.3030 cd         1 STK      -0.034300
     10 C17         24.9220    66.4380    71.9630 cd         1 STK      -0.076000
     11 C18         26.1250    67.0280    71.8170 cc         1 STK      -0.189300
     12 N10         25.2670    69.2250    72.3360 nd         1 STK      -0.358800
     13 N11         24.0840    68.6190    72.4500 n          1 STK       0.026300
     14 N14         22.0260    68.2280    72.7790 ns         1 STK      -0.321900
     15 N15         22.5720    67.0180    72.5000 nc         1 STK      -0.175600
     16 O13         22.7210    70.4530    72.9730 o          1 STK      -0.583500
     17 S08         27.7730    69.2900    71.7370 ss         1 STK      -0.212200
     18 CL1         32.2000    66.3250    70.8710 cl         1 STK      -0.099400
     19 H1          31.6300    65.6240    73.5700 ha         1 STK       0.152000
     20 H2          29.8110    66.3410    75.0760 ha         1 STK       0.143000
     21 H3          28.1140    67.9580    74.3040 ha         1 STK       0.150000
     22 H4          29.9940    68.0620    70.4430 ha         1 STK       0.162000
     23 H5          24.7700    65.3780    71.8170 ha         1 STK       0.169000
     24 H6          26.9950    66.4510    71.5390 ha         1 STK       0.163000
     25 H7          21.0390    68.2980    72.9740 hn         1 STK       0.382500
@<TRIPOS>BOND
     1     1     2 ar  
     2     1     6 ar  
     3     1    18 1   
     4     2     3 ar  
     5     2    19 1   
     6     3     4 ar  
     7     3    20 1   
     8     4     5 ar  
     9     4    21 1   
    10     5     6 ar  
    11     5    17 1   
    12     6    22 1   
    13     7    11 1   
    14     7    12 2   
    15     7    17 1   
    16     8    13 1   
    17     8    14 1   
    18     8    16 2   
    19     9    10 1   
    20     9    13 1   
    21     9    15 2   
    22    10    11 2   
    23    10    23 1   
    24    11    24 1   
    25    12    13 1   
    26    14    15 1   
    27    14    25 1   
@<TRIPOS>SUBSTRUCTURE
     1 STK         1 TEMP              0 ****  ****    0 ROOT
