@<TRIPOS>MOLECULE
STK
   25    27     1     0     0
SMALL
No Charge or Current Charge


@<TRIPOS>ATOM
      1 C02         30.7580    66.6560    72.1990 ca         1 STK       0.111000
      2 C03         30.4740    66.3800    73.5470 ca         1 STK      -0.082000
      3 C04         29.3930    67.0180    74.1800 ca         1 STK      -0.106000
      4 C05         28.5930    67.9260    73.4640 ca         1 STK      -0.075000
      5 C06         28.8670    68.1930    72.1060 ca         1 STK      -0.146000
      6 C07         29.9600    67.5630    71.4810 ca         1 STK      -0.064000
      7 C09         26.3860    68.5010    71.5880 cc         1 STK       0.350300
      8 C12         23.1960    69.0430    73.3210 c          1 STK       0.543800
      9 C16         24.0830    67.2860    72.1920 cd         1 STK      -0.085000
     10 C17         25.0130    66.5190    71.4260 cd         1 STK      -0.058000
     11 C18         26.1850    67.1610    71.1200 cc         1 STK      -0.106000
     12 N10         25.5270    69.2470    72.2800 nd         1 STK      -0.358800
     13 N11         24.3190    68.6020    72.6060 n          1 STK       0.077000
     14 N14         22.3950    67.9380    73.2650 ns         1 STK      -0.368400
     15 N15         22.8940    66.8650    72.5950 nc         1 STK      -0.175600
     16 O13         22.9740    70.1220    73.8580 o          1 STK      -0.508000
     17 S08         27.8690    69.3510    71.1620 ss         1 STK      -0.085300
     18 Cl1         32.1150    65.8650    71.4080 cl         1 STK      -0.191000
     19 H1          31.0940    65.6790    74.0990 ha         1 STK       0.134000
     20 H2          29.1770    66.8110    75.2260 ha         1 STK       0.125000
     21 H3          27.7670    68.4220    73.9710 ha         1 STK       0.132000
     22 H4          30.1880    67.7700    70.4380 ha         1 STK       0.144000
     23 H5          24.8070    65.5020    71.1070 ha         1 STK       0.151000
     24 H6          26.9610    66.6760    70.5380 ha         1 STK       0.145000
     25 H7          21.4750    67.9290    73.7030 hn         1 STK       0.496000
@<TRIPOS>BOND
     1     1     2 ar  
     2     1     6 ar  
     3     1    18 1   
     4     2     3 ar  
     5     2    19 1   
     6     3     4 ar  
     7     3    20 1   
     8     4     5 ar  
     9     4    21 1   
    10     5     6 ar  
    11     5    17 1   
    12     6    22 1   
    13     7    11 1   
    14     7    12 2   
    15     7    17 1   
    16     8    13 1   
    17     8    14 1   
    18     8    16 2   
    19     9    10 1   
    20     9    13 1   
    21     9    15 2   
    22    10    11 2   
    23    10    23 1   
    24    11    24 1   
    25    12    13 1   
    26    14    15 1   
    27    14    25 1   
@<TRIPOS>SUBSTRUCTURE
     1 STK         1 TEMP              0 ****  ****    0 ROOT
