@<TRIPOS>MOLECULE
STL
   29    30     1     0     0
SMALL
abcg2


@<TRIPOS>ATOM
      1 C1           1.3980     0.1170    -3.5670 ca         1 STL       0.178100
      2 C2           0.3330     0.1150    -4.4630 ca         1 STL      -0.245000
      3 C3          -0.9670     0.1040    -3.9700 ca         1 STL       0.178100
      4 C4          -1.2010     0.0960    -2.5990 ca         1 STL      -0.207500
      5 C5          -0.1290     0.0980    -1.7030 ca         1 STL       0.029200
      6 C6           1.1770     0.1090    -2.1950 ca         1 STL      -0.207500
      7 C7          -0.4380     0.0890    -0.2730 ce         1 STL      -0.170200
      8 C8           0.4520     0.0990     0.7290 cf         1 STL      -0.127200
      9 C9           0.1550     0.0890     2.1570 ca         1 STL      -0.096800
     10 C10          1.2110     0.0950     3.0710 ca         1 STL      -0.055500
     11 C11          0.9940     0.0850     4.4390 ca         1 STL      -0.179000
     12 C12         -0.3060     0.0690     4.9340 ca         1 STL       0.147100
     13 C13         -1.3780     0.0630     4.0380 ca         1 STL      -0.179000
     14 C14         -1.1450     0.0730     2.6780 ca         1 STL      -0.055500
     15 O1          -0.5900     0.0580     6.2490 oh         1 STL      -0.531100
     16 O2          -1.9680     0.1020    -4.8710 oh         1 STL      -0.534100
     17 O3           2.6780     0.1270    -3.9880 oh         1 STL      -0.534100
     18 H2           0.5020     0.1210    -5.5340 ha         1 STL       0.129000
     19 H4          -2.2180     0.0880    -2.2210 ha         1 STL       0.122000
     20 H6           2.0280     0.1090    -1.5260 ha         1 STL       0.122000
     21 H7          -1.4980     0.0710    -0.0420 ha         1 STL       0.172000
     22 H8           1.5120     0.1180     0.4930 ha         1 STL       0.174000
     23 H10          2.2310     0.1070     2.7050 ha         1 STL       0.113500
     24 H11          1.8390     0.0890     5.1180 ha         1 STL       0.121500
     25 H13         -2.3930     0.0510     4.4180 ha         1 STL       0.121500
     26 H14         -1.9990     0.0680     2.0120 ha         1 STL       0.113500
     27 HO1          0.2200     0.0630     6.7710 ho         1 STL       0.466000
     28 HO2         -2.8220     0.0960    -4.4240 ho         1 STL       0.467500
     29 HO3          2.7190     0.1300    -4.9510 ho         1 STL       0.467500
@<TRIPOS>BOND
     1     1     2 ar  
     2     1     6 ar  
     3     1    17 1   
     4     2     3 ar  
     5     2    18 1   
     6     3     4 ar  
     7     3    16 1   
     8     4     5 ar  
     9     4    19 1   
    10     5     6 ar  
    11     5     7 1   
    12     6    20 1   
    13     7     8 2   
    14     7    21 1   
    15     8     9 1   
    16     8    22 1   
    17     9    10 ar  
    18     9    14 ar  
    19    10    11 ar  
    20    10    23 1   
    21    11    12 ar  
    22    11    24 1   
    23    12    13 ar  
    24    12    15 1   
    25    13    14 ar  
    26    13    25 1   
    27    14    26 1   
    28    15    27 1   
    29    16    28 1   
    30    17    29 1   
@<TRIPOS>SUBSTRUCTURE
     1 STL         1 TEMP              0 ****  ****    0 ROOT
