@<TRIPOS>MOLECULE
STL
   29    30     1     0     0
SMALL
No Charge or Current Charge


@<TRIPOS>ATOM
      1 C1           1.4270     0.1170    -3.6290 ca         1 STL       0.178100
      2 C2           0.3570     0.1160    -4.5320 ca         1 STL      -0.245000
      3 C3          -0.9560     0.1050    -4.0490 ca         1 STL       0.178100
      4 C4          -1.2020     0.0970    -2.6680 ca         1 STL      -0.207500
      5 C5          -0.1320     0.0990    -1.7510 ca         1 STL       0.029200
      6 C6           1.1870     0.1090    -2.2480 ca         1 STL      -0.207500
      7 C7          -0.4270     0.0900    -0.2870 ce         1 STL      -0.170200
      8 C8           0.4370     0.0950     0.7700 cf         1 STL      -0.127200
      9 C9           0.1490     0.0860     2.2210 ca         1 STL      -0.096800
     10 C10          1.2230     0.0940     3.1360 ca         1 STL      -0.055500
     11 C11          0.9840     0.0860     4.5220 ca         1 STL      -0.179000
     12 C12         -0.3320     0.0690     5.0060 ca         1 STL       0.147100
     13 C13         -1.4070     0.0610     4.1080 ca         1 STL      -0.179000
     14 C14         -1.1720     0.0690     2.7220 ca         1 STL      -0.055500
     15 O1          -0.5720     0.0610     6.3470 oh         1 STL      -0.531100
     16 O2          -1.9930     0.1040    -4.9310 oh         1 STL      -0.534100
     17 O3           2.7070     0.1270    -4.0890 oh         1 STL      -0.534100
     18 H2           0.5350     0.1220    -5.6040 ha         1 STL       0.129000
     19 H4          -2.2250     0.0890    -2.3010 ha         1 STL       0.122000
     20 H6           2.0370     0.1100    -1.5730 ha         1 STL       0.122000
     21 H7          -1.4930     0.0770    -0.0710 ha         1 STL       0.172000
     22 H8           1.5030     0.1080     0.5440 ha         1 STL       0.174000
     23 H10          2.2490     0.1070     2.7740 ha         1 STL       0.113500
     24 H11          1.8260     0.0920     5.2100 ha         1 STL       0.121500
     25 H13         -2.4270     0.0480     4.4840 ha         1 STL       0.121500
     26 H14         -2.0250     0.0630     2.0490 ha         1 STL       0.113500
     27 HO1          0.2890     0.0690     6.8170 ho         1 STL       0.466000
     28 HO2         -2.8300     0.0960    -4.4200 ho         1 STL       0.467500
     29 HO3          2.6800     0.1320    -5.0700 ho         1 STL       0.467500
@<TRIPOS>BOND
     1     1     2 ar  
     2     1     6 ar  
     3     1    17 1   
     4     2     3 ar  
     5     2    18 1   
     6     3     4 ar  
     7     3    16 1   
     8     4     5 ar  
     9     4    19 1   
    10     5     6 ar  
    11     5     7 1   
    12     6    20 1   
    13     7     8 2   
    14     7    21 1   
    15     8     9 1   
    16     8    22 1   
    17     9    10 ar  
    18     9    14 ar  
    19    10    11 ar  
    20    10    23 1   
    21    11    12 ar  
    22    11    24 1   
    23    12    13 ar  
    24    12    15 1   
    25    13    14 ar  
    26    13    25 1   
    27    14    26 1   
    28    15    27 1   
    29    16    28 1   
    30    17    29 1   
@<TRIPOS>SUBSTRUCTURE
     1 STL         1 TEMP              0 ****  ****    0 ROOT
