@<TRIPOS>MOLECULE
STM
   58    61     1     0     0
SMALL
abcg2


@<TRIPOS>ATOM
      1 O           -3.6690    -4.2790     0.4240 o          1 STM      -0.503000
      2 C6          -2.5890    -3.8550     0.0820 c          1 STM       0.515600
      3 O1          -1.6260    -4.6340    -0.3880 os         1 STM      -0.413100
      4 C7          -1.8990    -6.0310    -0.4600 c3         1 STM       0.148900
      5 C5          -2.1780    -2.4280     0.1480 ca         1 STM       0.222500
      6 N           -0.8860    -2.2050     0.0370 nb         1 STM      -0.590000
      7 C1          -3.1020    -1.3760     0.3460 ca         1 STM       0.037700
      8 C           -4.5840    -1.5930     0.4170 c3         1 STM      -0.053800
      9 C2          -2.5820    -0.0970     0.4500 cp         1 STM      -0.135000
     10 C18         -3.4600     1.0780     0.6720 cp         1 STM      -0.065000
     11 C19         -3.8560     1.4440     1.9600 ca         1 STM      -0.094000
     12 C20         -4.6720     2.5410     2.1560 ca         1 STM      -0.118000
     13 C21         -5.1070     3.2960     1.0680 ca         1 STM      -0.148000
     14 C22         -4.7160     2.9470    -0.2140 ca         1 STM       0.043100
     15 O6          -5.0640     3.5940    -1.3450 os         1 STM      -0.366100
     16 C24         -5.9450     4.6960    -1.2490 c3         1 STM       0.156900
     17 C23         -3.8840     1.8310    -0.4140 ca         1 STM       0.131100
     18 O5          -3.4930     1.4650    -1.6490 oh         1 STM      -0.520100
     19 C3          -1.1880     0.1380     0.3530 ca         1 STM       0.400000
     20 N3          -0.7030     1.3820     0.4590 nv         1 STM      -1.088000
     21 C4          -0.3620    -0.9990     0.1290 cp         1 STM       0.155000
     22 C8           1.1020    -0.9450    -0.0190 cp         1 STM       0.353000
     23 C9           1.8320    -2.1110    -0.3050 ca         1 STM      -0.116000
     24 C10          3.2000    -2.0340    -0.4390 ca         1 STM      -0.036000
     25 N1           1.7170     0.2240     0.1220 nb         1 STM      -0.690000
     26 C12          3.0310     0.2910    -0.0040 ca         1 STM       0.314500
     27 C11          3.8330    -0.8020    -0.2830 ca         1 STM      -0.180600
     28 C13          3.6380     1.6390     0.1690 c          1 STM       0.473800
     29 O2           2.9690     2.6170     0.3970 o          1 STM      -0.488100
     30 C14          5.1240     1.7490     0.0560 cc         1 STM       0.116800
     31 N2           5.6300     2.9690     0.2450 nv         1 STM      -0.951000
     32 C15          5.8780     0.6490    -0.2360 cd         1 STM      -0.142100
     33 C16          5.3060    -0.6680    -0.4200 c          1 STM       0.593900
     34 O3           5.9920    -1.6430    -0.6790 o          1 STM      -0.515100
     35 O4           7.2230     0.7880    -0.3700 os         1 STM      -0.337100
     36 C17          7.9650     0.4560     0.8020 c3         1 STM       0.137900
     37 H1          -2.1380    -6.4470     0.5190 h1         1 STM       0.046033
     38 H2          -2.7180    -6.2450    -1.1470 h1         1 STM       0.046033
     39 H3          -0.9890    -6.4930    -0.8320 h1         1 STM       0.046033
     40 H4          -4.8700    -2.0590     1.3590 hc         1 STM       0.058700
     41 H5          -5.1210    -0.6520     0.3380 hc         1 STM       0.058700
     42 H6          -4.9320    -2.2460    -0.3810 hc         1 STM       0.058700
     43 H7          -3.5170     0.8560     2.8030 ha         1 STM       0.125000
     44 H8          -4.9790     2.8220     3.1540 ha         1 STM       0.119000
     45 H9          -5.7480     4.1510     1.2380 ha         1 STM       0.119000
     46 H10         -6.1070     5.0540    -2.2620 h1         1 STM       0.043367
     47 H11         -6.9060     4.4060    -0.8160 h1         1 STM       0.043367
     48 H12         -5.5180     5.5060    -0.6520 h1         1 STM       0.043367
     49 H13         -3.8310     2.0900    -2.3020 ho         1 STM       0.481000
     50 H14         -1.3120     2.1480     0.6910 hn         1 STM       0.516500
     51 H15          0.2960     1.5270     0.4330 hn         1 STM       0.516500
     52 H16          1.3150    -3.0530    -0.4200 ha         1 STM       0.163000
     53 H17          3.7770    -2.9200    -0.6640 ha         1 STM       0.147000
     54 H18          5.0200     3.7570     0.3830 hn         1 STM       0.505500
     55 H19          6.6040     3.1540     0.0800 hn         1 STM       0.505500
     56 H20          7.8640    -0.6010     1.0570 h1         1 STM       0.036367
     57 H21          9.0110     0.6670     0.5890 h1         1 STM       0.036367
     58 H22          7.6510     1.0580     1.6580 h1         1 STM       0.036367
@<TRIPOS>BOND
     1     1     2 2   
     2     2     3 1   
     3     2     5 1   
     4     3     4 1   
     5     4    37 1   
     6     4    38 1   
     7     4    39 1   
     8     5     6 ar  
     9     5     7 ar  
    10     6    21 ar  
    11     7     8 1   
    12     7     9 ar  
    13     8    40 1   
    14     8    41 1   
    15     8    42 1   
    16     9    10 1   
    17     9    19 ar  
    18    10    11 ar  
    19    10    17 ar  
    20    11    12 ar  
    21    11    43 1   
    22    12    13 ar  
    23    12    44 1   
    24    13    14 ar  
    25    13    45 1   
    26    14    15 1   
    27    14    17 ar  
    28    15    16 1   
    29    16    46 1   
    30    16    47 1   
    31    16    48 1   
    32    17    18 1   
    33    18    49 1   
    34    19    20 1   
    35    19    21 ar  
    36    20    50 1   
    37    20    51 1   
    38    21    22 1   
    39    22    23 ar  
    40    22    25 ar  
    41    23    24 ar  
    42    23    52 1   
    43    24    27 ar  
    44    24    53 1   
    45    25    26 ar  
    46    26    27 ar  
    47    26    28 1   
    48    27    33 1   
    49    28    29 2   
    50    28    30 1   
    51    30    31 1   
    52    30    32 2   
    53    31    54 1   
    54    31    55 1   
    55    32    33 1   
    56    32    35 1   
    57    33    34 2   
    58    35    36 1   
    59    36    56 1   
    60    36    57 1   
    61    36    58 1   
@<TRIPOS>SUBSTRUCTURE
     1 STM         1 TEMP              0 ****  ****    0 ROOT
