@<TRIPOS>MOLECULE
STM
   58    61     1     0     0
SMALL
No Charge or Current Charge


@<TRIPOS>ATOM
      1 O           -3.6880    -4.4510     0.6140 o          1 STM      -0.503000
      2 C6          -2.6600    -4.0050     0.1120 c          1 STM       0.515600
      3 O1          -1.7450    -4.8100    -0.5320 os         1 STM      -0.413100
      4 C7          -2.0420    -6.2120    -0.6670 c3         1 STM       0.148900
      5 C5          -2.2100    -2.5410     0.2350 ca         1 STM       0.222500
      6 N           -0.8650    -2.3140     0.2730 nb         1 STM      -0.590000
      7 C1          -3.1450    -1.4670     0.3180 ca         1 STM       0.037700
      8 C           -4.6520    -1.7280     0.1850 c3         1 STM      -0.053800
      9 C2          -2.6630    -0.1350     0.4950 cp         1 STM      -0.135000
     10 C18         -3.6160     1.0160     0.6490 cp         1 STM      -0.065000
     11 C19         -4.3950     1.1290     1.8240 ca         1 STM      -0.094000
     12 C20         -5.3060     2.1850     1.9910 ca         1 STM      -0.118000
     13 C21         -5.4580     3.1520     0.9840 ca         1 STM      -0.148000
     14 C22         -4.6940     3.0620    -0.2000 ca         1 STM       0.043100
     15 O6          -4.8050     3.9870    -1.2260 os         1 STM      -0.366100
     16 C24         -5.7100     5.1060    -1.1580 c3         1 STM       0.156900
     17 C23         -3.7790     1.9990    -0.3620 ca         1 STM       0.131100
     18 O5          -3.0560     1.9400    -1.5210 oh         1 STM      -0.520100
     19 C3          -1.2560     0.0690     0.5390 ca         1 STM       0.400000
     20 N3          -0.7970     1.3550     0.7280 nv         1 STM      -1.088000
     21 C4          -0.3690    -1.0540     0.4030 cp         1 STM       0.155000
     22 C8           1.1540    -0.9370     0.3990 cp         1 STM       0.353000
     23 C9           1.9790    -2.0670     0.6150 ca         1 STM      -0.116000
     24 C10          3.3740    -1.9420     0.5810 ca         1 STM      -0.036000
     25 N1           1.7260     0.2710     0.1490 nb         1 STM      -0.690000
     26 C12          3.0840     0.4210     0.1090 ca         1 STM       0.314500
     27 C11          3.9430    -0.6770     0.3230 ca         1 STM      -0.180600
     28 C13          3.6340     1.8170    -0.1710 c          1 STM       0.473800
     29 O2           2.8900     2.7870    -0.3490 o          1 STM      -0.488100
     30 C14          5.1370     1.9370    -0.2160 cc         1 STM       0.116800
     31 N2           5.6100     3.2170    -0.4800 nv         1 STM      -0.951000
     32 C15          5.9790     0.8600    -0.0050 cd         1 STM      -0.142100
     33 C16          5.4360    -0.5170     0.2790 c          1 STM       0.593900
     34 O3           6.1470    -1.4970     0.4730 o          1 STM      -0.515100
     35 O4           7.3370     1.1610    -0.0780 os         1 STM      -0.337100
     36 C17          8.3800     0.1840     0.1110 c3         1 STM       0.137900
     37 H1          -2.1520    -6.6860     0.3170 h1         1 STM       0.046033
     38 H2          -2.9700    -6.3630    -1.2330 h1         1 STM       0.046033
     39 H3          -1.2310    -6.7240    -1.2010 h1         1 STM       0.046033
     40 H4          -5.0730    -2.0900     1.1300 hc         1 STM       0.058700
     41 H5          -5.2140    -0.8330    -0.1040 hc         1 STM       0.058700
     42 H6          -4.8650    -2.4710    -0.5920 hc         1 STM       0.058700
     43 H7          -4.2890     0.3860     2.6130 ha         1 STM       0.125000
     44 H8          -5.8950     2.2530     2.9030 ha         1 STM       0.119000
     45 H9          -6.1710     3.9570     1.1390 ha         1 STM       0.119000
     46 H10         -5.6390     5.7080    -2.0720 h1         1 STM       0.043367
     47 H11         -6.7480     4.7630    -1.0570 h1         1 STM       0.043367
     48 H12         -5.4680     5.7520    -0.3050 h1         1 STM       0.043367
     49 H13         -3.3620     2.6930    -2.0740 ho         1 STM       0.481000
     50 H14         -1.4120     2.0990     0.4110 hn         1 STM       0.516500
     51 H15          0.1970     1.4910     0.5240 hn         1 STM       0.516500
     52 H16          1.5370    -3.0390     0.8120 ha         1 STM       0.163000
     53 H17          3.9960    -2.8200     0.7510 ha         1 STM       0.147000
     54 H18          4.9700     4.0090    -0.5600 hn         1 STM       0.505500
     55 H19          6.6130     3.4050    -0.4610 hn         1 STM       0.505500
     56 H20          8.3120    -0.6140    -0.6390 h1         1 STM       0.036367
     57 H21          9.3640     0.6590     0.0060 h1         1 STM       0.036367
     58 H22          8.3270    -0.2580     1.1140 h1         1 STM       0.036367
@<TRIPOS>BOND
     1     1     2 2   
     2     2     3 1   
     3     2     5 1   
     4     3     4 1   
     5     4    37 1   
     6     4    38 1   
     7     4    39 1   
     8     5     6 ar  
     9     5     7 ar  
    10     6    21 ar  
    11     7     8 1   
    12     7     9 ar  
    13     8    40 1   
    14     8    41 1   
    15     8    42 1   
    16     9    10 1   
    17     9    19 ar  
    18    10    11 ar  
    19    10    17 ar  
    20    11    12 ar  
    21    11    43 1   
    22    12    13 ar  
    23    12    44 1   
    24    13    14 ar  
    25    13    45 1   
    26    14    15 1   
    27    14    17 ar  
    28    15    16 1   
    29    16    46 1   
    30    16    47 1   
    31    16    48 1   
    32    17    18 1   
    33    18    49 1   
    34    19    20 1   
    35    19    21 ar  
    36    20    50 1   
    37    20    51 1   
    38    21    22 1   
    39    22    23 ar  
    40    22    25 ar  
    41    23    24 ar  
    42    23    52 1   
    43    24    27 ar  
    44    24    53 1   
    45    25    26 ar  
    46    26    27 ar  
    47    26    28 1   
    48    27    33 1   
    49    28    29 2   
    50    28    30 1   
    51    30    31 1   
    52    30    32 2   
    53    31    54 1   
    54    31    55 1   
    55    32    33 1   
    56    32    35 1   
    57    33    34 2   
    58    35    36 1   
    59    36    56 1   
    60    36    57 1   
    61    36    58 1   
@<TRIPOS>SUBSTRUCTURE
     1 STM         1 TEMP              0 ****  ****    0 ROOT
