@<TRIPOS>MOLECULE
STN
   27    26     1     0     0
SMALL
abcg2


@<TRIPOS>ATOM
      1 CD1         62.4310    30.9610   117.4430 c3         1 STN      -0.082600
      2 CG          63.0760    29.6290   117.8340 c3         1 STN      -0.059700
      3 CN          66.0950    29.3650   115.3330 c3         1 STN       0.142000
      4 CA          65.2150    29.9930   116.4210 c3         1 STN      -0.213700
      5 CB          64.0180    29.0980   116.7470 c3         1 STN      -0.043400
      6 CD2         62.0020    28.5860   118.1500 c3         1 STN      -0.082600
      7 C           66.0970    30.2520   117.6690 c          1 STN       0.710000
      8 CM          65.0180    27.9920   113.5400 c          1 STN       0.569900
      9 ON          64.9680    30.3080   113.4470 oh         1 STN      -0.454100
     10 OM          64.3410    27.9390   112.5050 o          1 STN      -0.676100
     11 O           66.6160    29.2440   118.2150 o          1 STN      -0.729500
     12 OXT         66.2330    31.4470   118.0380 o          1 STN      -0.729500
     13 HD11        61.7430    31.3000   118.2210 hc         1 STN       0.022200
     14 HD12        61.8600    30.8490   116.5150 hc         1 STN       0.022200
     15 HD13        63.1740    31.7440   117.2900 hc         1 STN       0.022200
     16 HG          63.6660    29.7910   118.7430 hc         1 STN       0.074700
     17 HCN1        66.4530    28.3880   115.6570 h1         1 STN       0.061200
     18 HCN2        66.9630    29.9960   115.1290 h1         1 STN       0.061200
     19 HA          64.8690    30.9600   116.0600 hc         1 STN       0.058700
     20 HCB1        63.4310    28.9380   115.8360 hc         1 STN       0.020200
     21 HCB2        64.3980    28.1190   117.0550 hc         1 STN       0.020200
     22 HD21        62.4510    27.6390   118.4590 hc         1 STN       0.022200
     23 HD22        61.3860    28.3920   117.2670 hc         1 STN       0.022200
     24 HD23        61.3430    28.9270   118.9510 hc         1 STN       0.022200
     25 HM          65.3660    27.1150   114.0960 h5         1 STN       0.031200
     26 HN          64.4410    29.9510   112.7020 ho         1 STN       0.458000
     27 N           65.3980    29.1440   114.0860 n          1 STN      -0.270300
@<TRIPOS>BOND
     1     1     2 1   
     2     1    13 1   
     3     1    14 1   
     4     1    15 1   
     5     2     5 1   
     6     2     6 1   
     7     2    16 1   
     8     3     4 1   
     9     3    17 1   
    10     3    18 1   
    11     3    27 1   
    12     4     5 1   
    13     4     7 1   
    14     4    19 1   
    15     5    20 1   
    16     5    21 1   
    17     6    22 1   
    18     6    23 1   
    19     6    24 1   
    20     7    11 1   
    21     7    12 1   
    22     8    10 2   
    23     8    25 1   
    24     8    27 1   
    25     9    26 1   
    26     9    27 1   
@<TRIPOS>SUBSTRUCTURE
     1 STN         1 TEMP              0 ****  ****    0 ROOT
