@<TRIPOS>MOLECULE
STN
   27    26     1     0     0
SMALL
No Charge or Current Charge


@<TRIPOS>ATOM
      1 CD1         62.3830    30.9440   117.4390 c3         1 STN      -0.082600
      2 CG          63.0470    29.5990   117.8250 c3         1 STN      -0.059700
      3 CN          66.1280    29.3400   115.2830 c3         1 STN       0.142000
      4 CA          65.2150    29.9660   116.3630 c3         1 STN      -0.213700
      5 CB          64.0000    29.0560   116.7220 c3         1 STN      -0.043400
      6 CD2         61.9730    28.5480   118.1890 c3         1 STN      -0.082600
      7 C           66.0700    30.3160   117.5940 c          1 STN       0.710000
      8 CM          65.0050    27.8640   113.5490 c          1 STN       0.569900
      9 ON          65.3530    30.2940   113.1220 oh         1 STN      -0.454100
     10 OM          64.4640    27.6820   112.4600 o          1 STN      -0.676100
     11 O           66.6120    29.4070   118.2050 o          1 STN      -0.729500
     12 OXT         66.1880    31.4930   117.8960 o          1 STN      -0.729500
     13 HD11        61.6870    31.2690   118.2220 hc         1 STN       0.022200
     14 HD12        61.8230    30.8480   116.5010 hc         1 STN       0.022200
     15 HD13        63.1320    31.7350   117.3170 hc         1 STN       0.022200
     16 HG          63.6380    29.7720   118.7330 hc         1 STN       0.074700
     17 HCN1        66.5160    28.3780   115.6440 h1         1 STN       0.061200
     18 HCN2        66.9940    29.9970   115.1240 h1         1 STN       0.061200
     19 HA          64.8290    30.9060   115.9520 hc         1 STN       0.058700
     20 HCB1        63.4090    28.8740   115.8160 hc         1 STN       0.020200
     21 HCB2        64.3820    28.0780   117.0390 hc         1 STN       0.020200
     22 HD21        62.4410    27.6120   118.5180 hc         1 STN       0.022200
     23 HD22        61.3340    28.3270   117.3250 hc         1 STN       0.022200
     24 HD23        61.3350    28.9100   119.0040 hc         1 STN       0.022200
     25 HM          65.1810    27.0650   114.2960 h5         1 STN       0.031200
     26 HN          64.4520    30.6530   113.2910 ho         1 STN       0.458000
     27 N           65.4610    29.1350   113.9800 n          1 STN      -0.270300
@<TRIPOS>BOND
     1     1     2 1   
     2     1    13 1   
     3     1    14 1   
     4     1    15 1   
     5     2     5 1   
     6     2     6 1   
     7     2    16 1   
     8     3     4 1   
     9     3    17 1   
    10     3    18 1   
    11     3    27 1   
    12     4     5 1   
    13     4     7 1   
    14     4    19 1   
    15     5    20 1   
    16     5    21 1   
    17     6    22 1   
    18     6    23 1   
    19     6    24 1   
    20     7    11 1   
    21     7    12 1   
    22     8    10 2   
    23     8    25 1   
    24     8    27 1   
    25     9    26 1   
    26     9    27 1   
@<TRIPOS>SUBSTRUCTURE
     1 STN         1 TEMP              0 ****  ****    0 ROOT
