@<TRIPOS>MOLECULE
STQ
   24    25     1     0     0
SMALL
abcg2


@<TRIPOS>ATOM
      1 N1          35.6040    14.6110   -62.0070 n8         1 STQ      -0.990200
      2 C10         36.2120    15.8370   -62.5240 c6         1 STQ       0.208800
      3 C5          36.8190    16.7020   -61.4300 ca         1 STQ      -0.123300
      4 C6          37.9980    16.2760   -60.8170 ca         1 STQ      -0.109000
      5 C1          38.5720    16.9890   -59.7780 ca         1 STQ      -0.114000
      6 C9          35.1970    16.6170   -63.3500 c6         1 STQ      -0.068400
      7 C8          34.2180    17.3710   -62.4590 c6         1 STQ      -0.074400
      8 C7          34.9620    18.4160   -61.6420 c6         1 STQ      -0.034100
      9 C4          36.2100    17.8780   -60.9880 ca         1 STQ      -0.059300
     10 C3          36.7930    18.5880   -59.9360 ca         1 STQ      -0.114000
     11 C2          37.9610    18.1550   -59.3320 ca         1 STQ      -0.104000
     12 H1          36.3000    14.0780   -61.4990 hn         1 STQ       0.393500
     13 H2          34.8940    14.8430   -61.3220 hn         1 STQ       0.393500
     14 H4          37.0230    15.5200   -63.1860 h1         1 STQ       0.063700
     15 H5          38.4760    15.3660   -61.1660 ha         1 STQ       0.108000
     16 H6          39.4890    16.6410   -59.3200 ha         1 STQ       0.113000
     17 H7          35.7220    17.3360   -63.9870 hc         1 STQ       0.051700
     18 H8          34.6780    15.9270   -64.0170 hc         1 STQ       0.051700
     19 H9          33.4480    17.8530   -63.0640 hc         1 STQ       0.043200
     20 H10         33.6940    16.6780   -61.7940 hc         1 STQ       0.043200
     21 H11         35.2460    19.2450   -62.3000 hc         1 STQ       0.048700
     22 H12         34.3080    18.8500   -60.8830 hc         1 STQ       0.048700
     23 H13         36.3160    19.4990   -59.5900 ha         1 STQ       0.110000
     24 H14         38.3940    18.7240   -58.5180 ha         1 STQ       0.113000
@<TRIPOS>BOND
     1     1     2 1   
     2     1    12 1   
     3     1    13 1   
     4     2     3 1   
     5     2     6 1   
     6     2    14 1   
     7     3     4 ar  
     8     3     9 ar  
     9     4     5 ar  
    10     4    15 1   
    11     5    11 ar  
    12     5    16 1   
    13     6     7 1   
    14     6    17 1   
    15     6    18 1   
    16     7     8 1   
    17     7    19 1   
    18     7    20 1   
    19     8     9 1   
    20     8    21 1   
    21     8    22 1   
    22     9    10 ar  
    23    10    11 ar  
    24    10    23 1   
    25    11    24 1   
@<TRIPOS>SUBSTRUCTURE
     1 STQ         1 TEMP              0 ****  ****    0 ROOT
