@<TRIPOS>MOLECULE
STQ
   24    25     1     0     0
SMALL
No Charge or Current Charge


@<TRIPOS>ATOM
      1 N1          35.6060    14.6090   -61.9920 n8         1 STQ      -0.990200
      2 C10         36.2220    15.8280   -62.5490 c6         1 STQ       0.208800
      3 C5          36.8290    16.6720   -61.4190 ca         1 STQ      -0.123300
      4 C6          38.0240    16.2380   -60.8070 ca         1 STQ      -0.109000
      5 C1          38.6020    16.9790   -59.7630 ca         1 STQ      -0.114000
      6 C9          35.1880    16.6120   -63.3950 c6         1 STQ      -0.068400
      7 C8          34.1890    17.3750   -62.4970 c6         1 STQ      -0.074400
      8 C7          34.9300    18.4090   -61.6200 c6         1 STQ      -0.034100
      9 C4          36.2120    17.8680   -60.9710 ca         1 STQ      -0.059300
     10 C3          36.8030    18.6060   -59.9260 ca         1 STQ      -0.114000
     11 C2          37.9910    18.1630   -59.3220 ca         1 STQ      -0.104000
     12 H1          36.3070    14.1380   -61.4120 hn         1 STQ       0.393500
     13 H2          34.8980    14.9040   -61.3120 hn         1 STQ       0.393500
     14 H4          37.0340    15.5010   -63.2180 h1         1 STQ       0.063700
     15 H5          38.5070    15.3230   -61.1420 ha         1 STQ       0.108000
     16 H6          39.5230    16.6360   -59.2980 ha         1 STQ       0.113000
     17 H7          35.7180    17.3270   -64.0390 hc         1 STQ       0.051700
     18 H8          34.6520    15.9310   -64.0700 hc         1 STQ       0.051700
     19 H9          33.4370    17.8830   -63.1160 hc         1 STQ       0.043200
     20 H10         33.6410    16.6690   -61.8580 hc         1 STQ       0.043200
     21 H11         35.1930    19.2780   -62.2380 hc         1 STQ       0.048700
     22 H12         34.2460    18.7840   -60.8460 hc         1 STQ       0.048700
     23 H13         36.3410    19.5290   -59.5830 ha         1 STQ       0.110000
     24 H14         38.4400    18.7390   -58.5160 ha         1 STQ       0.113000
@<TRIPOS>BOND
     1     1     2 1   
     2     1    12 1   
     3     1    13 1   
     4     2     3 1   
     5     2     6 1   
     6     2    14 1   
     7     3     4 ar  
     8     3     9 ar  
     9     4     5 ar  
    10     4    15 1   
    11     5    11 ar  
    12     5    16 1   
    13     6     7 1   
    14     6    17 1   
    15     6    18 1   
    16     7     8 1   
    17     7    19 1   
    18     7    20 1   
    19     8     9 1   
    20     8    21 1   
    21     8    22 1   
    22     9    10 ar  
    23    10    11 ar  
    24    10    23 1   
    25    11    24 1   
@<TRIPOS>SUBSTRUCTURE
     1 STQ         1 TEMP              0 ****  ****    0 ROOT
