@<TRIPOS>MOLECULE
STR
   53    56     1     0     0
SMALL
No Charge or Current Charge


@<TRIPOS>ATOM
      1 C1           1.6990    -0.1890    -2.9360 c6         1 STR      -0.064400
      2 C2           1.6660    -0.0300    -4.4740 c6         1 STR      -0.181400
      3 C3           0.3670    -0.5800    -5.0560 c          1 STR       0.575300
      4 O3           0.3340    -1.1810    -6.1210 o          1 STR      -0.529100
      5 C4          -0.8530    -0.3210    -4.2550 ce         1 STR      -0.318200
      6 C5          -0.8380     0.1260    -2.9760 c2         1 STR      -0.031400
      7 C6          -2.1490     0.3930    -2.2390 c6         1 STR      -0.051200
      8 C7          -2.1600    -0.2150    -0.8250 c6         1 STR      -0.068400
      9 C8          -0.9470     0.2780     0.0020 c6         1 STR      -0.045700
     10 C9           0.3920    -0.0970    -0.7290 c6         1 STR      -0.046700
     11 C10          0.4650     0.4640    -2.2110 c6         1 STR      -0.010800
     12 C11          1.6460     0.2680     0.1480 c6         1 STR      -0.071400
     13 C12          1.5670    -0.3190     1.5870 c6         1 STR      -0.065400
     14 C13          0.2550     0.1020     2.3090 c5         1 STR      -0.033000
     15 C14         -0.9520    -0.3430     1.4290 c5         1 STR      -0.062700
     16 C15         -2.1640    -0.0570     2.3630 c5         1 STR      -0.070400
     17 C16         -1.6350    -0.4780     3.7780 c5         1 STR      -0.067400
     18 C17         -0.1040    -0.7710     3.5630 c5         1 STR      -0.167700
     19 C18          0.3250     1.6430     2.6090 c3         1 STR      -0.084100
     20 C19          0.6080     2.0240    -2.2440 c3         1 STR      -0.081100
     21 C20          0.7520    -0.4180     4.8150 c          1 STR       0.582100
     22 O20          0.6200     0.5970     5.4880 o          1 STR      -0.521100
     23 C21          1.8330    -1.4340     5.1850 c3         1 STR      -0.201100
     24 H11          1.7380    -1.2630    -2.7070 hc         1 STR       0.047700
     25 H12          2.6380     0.2360    -2.5580 hc         1 STR       0.047700
     26 H21          2.5290    -0.4890    -4.9740 hc         1 STR       0.069700
     27 H22          1.6810     1.0430    -4.6970 hc         1 STR       0.069700
     28 H4          -1.7880    -0.5630    -4.7550 ha         1 STR       0.195000
     29 H61         -2.9980    -0.0080    -2.8090 hc         1 STR       0.054200
     30 H62         -2.3150     1.4770    -2.1750 hc         1 STR       0.054200
     31 H71         -2.1480    -1.3110    -0.8980 hc         1 STR       0.046200
     32 H72         -3.0990     0.0570    -0.3250 hc         1 STR       0.046200
     33 H8          -1.0240     1.3680     0.0980 hc         1 STR       0.054700
     34 H9           0.3910    -1.1940    -0.8140 hc         1 STR       0.048700
     35 H111         2.5610    -0.1160    -0.3190 hc         1 STR       0.042700
     36 H112         1.7750     1.3560     0.2030 hc         1 STR       0.042700
     37 H121         1.6210    -1.4150     1.5240 hc         1 STR       0.040700
     38 H122         2.4440    -0.0060     2.1690 hc         1 STR       0.040700
     39 H14         -0.9040    -1.4250     1.2440 hc         1 STR       0.044700
     40 H151        -3.0490    -0.6340     2.0730 hc         1 STR       0.045200
     41 H152        -2.4550     0.9990     2.3400 hc         1 STR       0.045200
     42 H161        -2.1550    -1.3630     4.1610 hc         1 STR       0.054200
     43 H162        -1.8140     0.3250     4.5040 hc         1 STR       0.054200
     44 H17          0.0680    -1.8290     3.3260 hc         1 STR       0.058700
     45 H181         1.2450     1.8980     3.1480 hc         1 STR       0.039033
     46 H182         0.3170     2.2510     1.6990 hc         1 STR       0.039033
     47 H183        -0.5090     1.9940     3.2260 hc         1 STR       0.039033
     48 H191         0.5080     2.4150    -3.2630 hc         1 STR       0.038700
     49 H192        -0.1580     2.5250    -1.6420 hc         1 STR       0.038700
     50 H193         1.5840     2.3530    -1.8700 hc         1 STR       0.038700
     51 H211         2.4360    -1.1190     6.0450 hc         1 STR       0.060367
     52 H212         1.3590    -2.4050     5.3620 hc         1 STR       0.060367
     53 H213         2.4520    -1.6350     4.3040 hc         1 STR       0.060367
@<TRIPOS>BOND
     1     1     2 1   
     2     1    11 1   
     3     1    24 1   
     4     1    25 1   
     5     2     3 1   
     6     2    26 1   
     7     2    27 1   
     8     3     4 2   
     9     3     5 1   
    10     5     6 2   
    11     5    28 1   
    12     6     7 1   
    13     6    11 1   
    14     7     8 1   
    15     7    29 1   
    16     7    30 1   
    17     8     9 1   
    18     8    31 1   
    19     8    32 1   
    20     9    10 1   
    21     9    15 1   
    22     9    33 1   
    23    10    11 1   
    24    10    12 1   
    25    10    34 1   
    26    11    20 1   
    27    12    13 1   
    28    12    35 1   
    29    12    36 1   
    30    13    14 1   
    31    13    37 1   
    32    13    38 1   
    33    14    15 1   
    34    14    18 1   
    35    14    19 1   
    36    15    16 1   
    37    15    39 1   
    38    16    17 1   
    39    16    40 1   
    40    16    41 1   
    41    17    18 1   
    42    17    42 1   
    43    17    43 1   
    44    18    21 1   
    45    18    44 1   
    46    19    45 1   
    47    19    46 1   
    48    19    47 1   
    49    20    48 1   
    50    20    49 1   
    51    20    50 1   
    52    21    22 2   
    53    21    23 1   
    54    23    51 1   
    55    23    52 1   
    56    23    53 1   
@<TRIPOS>SUBSTRUCTURE
     1 STR         1 TEMP              0 ****  ****    0 ROOT
