@<TRIPOS>MOLECULE
STR
   53    56     1     0     0
SMALL
bcc


@<TRIPOS>ATOM
      1 C1           1.6430    -0.2690    -2.8450 c6         1 STR      -0.064400
      2 C2           1.6500    -0.1140    -4.3570 c6         1 STR      -0.181400
      3 C3           0.3510    -0.5720    -4.9590 c          1 STR       0.575300
      4 O3           0.2800    -1.0540    -6.0770 o          1 STR      -0.529100
      5 C4          -0.8420    -0.3420    -4.1470 ce         1 STR      -0.268200
      6 C5          -0.8130     0.1650    -2.9020 c2         1 STR      -0.031400
      7 C6          -2.0920     0.5100    -2.2080 c6         1 STR      -0.051200
      8 C7          -2.1590    -0.0810    -0.8050 c6         1 STR      -0.068400
      9 C8          -0.9440     0.3210     0.0170 c6         1 STR      -0.045700
     10 C9           0.3530    -0.0910    -0.7010 c6         1 STR      -0.046700
     11 C10          0.4740     0.4510    -2.1550 c6         1 STR      -0.010800
     12 C11          1.5820     0.2410     0.1520 c6         1 STR      -0.071400
     13 C12          1.5190    -0.3490     1.5630 c6         1 STR      -0.065400
     14 C13          0.2340     0.0560     2.2800 c5         1 STR      -0.033000
     15 C14         -0.9550    -0.3380     1.3880 c5         1 STR      -0.062700
     16 C15         -2.1700    -0.1580     2.2920 c5         1 STR      -0.070400
     17 C16         -1.6540    -0.5600     3.6920 c5         1 STR      -0.067400
     18 C17         -0.1340    -0.7690     3.5460 c5         1 STR      -0.167700
     19 C18          0.2520     1.5520     2.6090 c3         1 STR      -0.084100
     20 C19          0.7040     1.9720    -2.1760 c3         1 STR      -0.081100
     21 C20          0.6780    -0.4350     4.7750 c          1 STR       0.582100
     22 O20          0.3100     0.3760     5.5980 o          1 STR      -0.521100
     23 C21          1.9710    -1.1860     4.9350 c3         1 STR      -0.201100
     24 H11          1.5900    -1.3350    -2.6020 hc         1 STR       0.047700
     25 H12          2.5920     0.0910    -2.4470 hc         1 STR       0.047700
     26 H21          2.4790    -0.6640    -4.8040 hc         1 STR       0.069700
     27 H22          1.7890     0.9370    -4.6370 hc         1 STR       0.069700
     28 H4          -1.7970    -0.5470    -4.6210 ha         1 STR       0.145000
     29 H61         -2.9440     0.1880    -2.8080 hc         1 STR       0.054200
     30 H62         -2.1620     1.6020    -2.1330 hc         1 STR       0.054200
     31 H71         -2.2180    -1.1730    -0.8680 hc         1 STR       0.046200
     32 H72         -3.0780     0.2560    -0.3200 hc         1 STR       0.046200
     33 H8          -0.9650     1.4120     0.1380 hc         1 STR       0.054700
     34 H9           0.3090    -1.1860    -0.7940 hc         1 STR       0.048700
     35 H111         2.4890    -0.1290    -0.3300 hc         1 STR       0.042700
     36 H112         1.7020     1.3250     0.2200 hc         1 STR       0.042700
     37 H121         1.5700    -1.4420     1.5060 hc         1 STR       0.040700
     38 H122         2.4040    -0.0220     2.1170 hc         1 STR       0.040700
     39 H14         -0.8470    -1.4190     1.2050 hc         1 STR       0.044700
     40 H151        -3.0170    -0.7670     1.9740 hc         1 STR       0.045200
     41 H152        -2.5110     0.8810     2.2820 hc         1 STR       0.045200
     42 H161        -2.1280    -1.4750     4.0490 hc         1 STR       0.054200
     43 H162        -1.8700     0.2120     4.4290 hc         1 STR       0.054200
     44 H17          0.0700    -1.8180     3.3000 hc         1 STR       0.058700
     45 H181         1.1290     1.8100     3.2060 hc         1 STR       0.039033
     46 H182         0.2920     2.1670     1.7110 hc         1 STR       0.039033
     47 H183        -0.6280     1.8680     3.1710 hc         1 STR       0.039033
     48 H191         0.6330     2.3680    -3.1900 hc         1 STR       0.038700
     49 H192        -0.0240     2.5050    -1.5630 hc         1 STR       0.038700
     50 H193         1.6960     2.2160    -1.7980 hc         1 STR       0.038700
     51 H211         2.5960    -0.7550     5.7150 hc         1 STR       0.060367
     52 H212         1.7410    -2.2210     5.2030 hc         1 STR       0.060367
     53 H213         2.5280    -1.2300     4.0000 hc         1 STR       0.060367
@<TRIPOS>BOND
     1     1     2 1   
     2     1    11 1   
     3     1    24 1   
     4     1    25 1   
     5     2     3 1   
     6     2    26 1   
     7     2    27 1   
     8     3     4 2   
     9     3     5 1   
    10     5     6 2   
    11     5    28 1   
    12     6     7 1   
    13     6    11 1   
    14     7     8 1   
    15     7    29 1   
    16     7    30 1   
    17     8     9 1   
    18     8    31 1   
    19     8    32 1   
    20     9    10 1   
    21     9    15 1   
    22     9    33 1   
    23    10    11 1   
    24    10    12 1   
    25    10    34 1   
    26    11    20 1   
    27    12    13 1   
    28    12    35 1   
    29    12    36 1   
    30    13    14 1   
    31    13    37 1   
    32    13    38 1   
    33    14    15 1   
    34    14    18 1   
    35    14    19 1   
    36    15    16 1   
    37    15    39 1   
    38    16    17 1   
    39    16    40 1   
    40    16    41 1   
    41    17    18 1   
    42    17    42 1   
    43    17    43 1   
    44    18    21 1   
    45    18    44 1   
    46    19    45 1   
    47    19    46 1   
    48    19    47 1   
    49    20    48 1   
    50    20    49 1   
    51    20    50 1   
    52    21    22 2   
    53    21    23 1   
    54    23    51 1   
    55    23    52 1   
    56    23    53 1   
@<TRIPOS>SUBSTRUCTURE
     1 STR         1 TEMP              0 ****  ****    0 ROOT
