@<TRIPOS>MOLECULE
STV
   29    30     1     0     0
SMALL
abcg2


@<TRIPOS>ATOM
      1 C4          50.3960   114.9310    32.3110 ca         1 STV      -0.102000
      2 C5          50.6990   115.7430    33.4170 ca         1 STV      -0.097000
      3 C6          51.7180   116.6500    33.2570 ca         1 STV       0.060100
      4 C7          52.4210   116.7570    32.0610 ca         1 STV       0.049100
      5 C8          52.1360   115.9690    30.9750 ca         1 STV      -0.070000
      6 N           51.8370   113.2480    29.6140 n7         1 STV      -0.914300
      7 C           54.4940   113.9290    27.9680 c3         1 STV      -0.061100
      8 O           51.5060   113.6570    27.1800 o          1 STV      -0.549000
      9 C1          53.8090   112.5730    27.9380 c3         1 STV      -0.306400
     10 C3          51.0900   115.0350    31.1110 ca         1 STV      -0.097300
     11 C9          53.1240   118.3810    33.4300 c5         1 STV       0.370600
     12 O1          51.5250   111.3070    27.9760 o          1 STV      -0.549000
     13 O2          53.4000   117.7100    32.1900 os         1 STV      -0.349100
     14 O3          52.2360   117.5300    34.1740 os         1 STV      -0.348100
     15 S           52.0330   112.6620    28.0930 s6         1 STV       1.202100
     16 H1          49.5960   114.2060    32.3960 ha         1 STV       0.119000
     17 H2          50.1590   115.6540    34.3490 ha         1 STV       0.137000
     18 H3          52.6920   116.0560    30.0510 ha         1 STV       0.139000
     19 H4          52.0090   112.5340    30.3150 hn         1 STV       0.479000
     20 H5          55.5710   113.7850    27.8660 hc         1 STV       0.050367
     21 H6          54.1540   114.5590    27.1470 hc         1 STV       0.050367
     22 H7          54.3040   114.4450    28.9090 hc         1 STV       0.050367
     23 H8          53.9670   112.0470    26.9950 h1         1 STV       0.096700
     24 H9          54.1360   111.9220    28.7510 h1         1 STV       0.096700
     25 H10         50.5410   114.7640    29.0550 h1         1 STV       0.066200
     26 H11         49.8140   113.6000    30.1630 h1         1 STV       0.066200
     27 H12         54.0490   118.5150    33.9860 h2         1 STV       0.069700
     28 H13         52.6250   119.3320    33.2240 h2         1 STV       0.069700
     29 C2          50.7250   114.1590    29.9420 c3         1 STV       0.272100
@<TRIPOS>BOND
     1     1     2 ar  
     2     1    10 ar  
     3     1    16 1   
     4     2     3 ar  
     5     2    17 1   
     6     3     4 ar  
     7     3    14 1   
     8     4     5 ar  
     9     4    13 1   
    10     5    10 ar  
    11     5    18 1   
    12     6    15 1   
    13     6    19 1   
    14     6    29 1   
    15     7     9 1   
    16     7    20 1   
    17     7    21 1   
    18     7    22 1   
    19     8    15 2   
    20     9    15 1   
    21     9    23 1   
    22     9    24 1   
    23    10    29 1   
    24    11    13 1   
    25    11    14 1   
    26    11    27 1   
    27    11    28 1   
    28    12    15 2   
    29    25    29 1   
    30    26    29 1   
@<TRIPOS>SUBSTRUCTURE
     1 STV         1 TEMP              0 ****  ****    0 ROOT
