@<TRIPOS>MOLECULE
STV
   29    30     1     0     0
SMALL
No Charge or Current Charge


@<TRIPOS>ATOM
      1 C4          50.6270   114.7860    32.3300 ca         1 STV      -0.102000
      2 C5          50.8760   115.5230    33.5080 ca         1 STV      -0.097000
      3 C6          51.6420   116.6900    33.4060 ca         1 STV       0.060100
      4 C7          52.1400   117.1180    32.2080 ca         1 STV       0.049100
      5 C8          51.9100   116.4120    31.0210 ca         1 STV      -0.070000
      6 N           52.1030   113.7720    29.3700 n7         1 STV      -0.914300
      7 C           54.7210   113.3410    27.6100 c3         1 STV      -0.061100
      8 O           51.6490   113.6050    26.9100 o          1 STV      -0.549000
      9 C1          53.7030   112.2030    27.8740 c3         1 STV      -0.306400
     10 C3          51.1410   115.2260    31.0820 ca         1 STV      -0.097300
     11 C9          52.8090   118.5330    33.7720 c5         1 STV       0.370600
     12 O1          51.1470   111.6470    28.4660 o          1 STV      -0.549000
     13 O2          52.8470   118.2720    32.3240 os         1 STV      -0.349100
     14 O3          51.9690   117.5180    34.4310 os         1 STV      -0.348100
     15 S           52.0000   112.7630    28.0570 s6         1 STV       1.202100
     16 H1          50.0350   113.8750    32.3870 ha         1 STV       0.119000
     17 H2          50.4840   115.1970    34.4690 ha         1 STV       0.137000
     18 H3          52.3180   116.7680    30.0780 ha         1 STV       0.139000
     19 H4          52.3920   113.1180    30.0930 hn         1 STV       0.479000
     20 H5          55.7300   112.9290    27.4940 hc         1 STV       0.050367
     21 H6          54.4710   113.8880    26.6930 hc         1 STV       0.050367
     22 H7          54.7420   114.0560    28.4430 hc         1 STV       0.050367
     23 H8          53.6950   111.4970    27.0370 h1         1 STV       0.096700
     24 H9          53.9540   111.6640    28.7940 h1         1 STV       0.096700
     25 H10         50.4990   115.1200    29.0390 h1         1 STV       0.066200
     26 H11         50.0730   113.7000    30.0050 h1         1 STV       0.066200
     27 H12         53.8270   118.4740    34.1750 h2         1 STV       0.069700
     28 H13         52.3910   119.5310    33.9550 h2         1 STV       0.069700
     29 C2          50.8700   114.4320    29.8120 c3         1 STV       0.272100
@<TRIPOS>BOND
     1     1     2 ar  
     2     1    10 ar  
     3     1    16 1   
     4     2     3 ar  
     5     2    17 1   
     6     3     4 ar  
     7     3    14 1   
     8     4     5 ar  
     9     4    13 1   
    10     5    10 ar  
    11     5    18 1   
    12     6    15 1   
    13     6    19 1   
    14     6    29 1   
    15     7     9 1   
    16     7    20 1   
    17     7    21 1   
    18     7    22 1   
    19     8    15 2   
    20     9    15 1   
    21     9    23 1   
    22     9    24 1   
    23    10    29 1   
    24    11    13 1   
    25    11    14 1   
    26    11    27 1   
    27    11    28 1   
    28    12    15 2   
    29    25    29 1   
    30    26    29 1   
@<TRIPOS>SUBSTRUCTURE
     1 STV         1 TEMP              0 ****  ****    0 ROOT
