@<TRIPOS>MOLECULE
STX
   29    29     1     0     0
SMALL
No Charge or Current Charge


@<TRIPOS>ATOM
      1 N            4.2930    -0.0810    -0.5700 n7         1 STX      -0.848400
      2 CA           2.9930    -0.3990     0.1160 c3         1 STX       0.072800
      3 C            1.7400     0.3440    -0.4470 c          1 STX       0.509600
      4 O            1.8560     1.2810    -1.2370 o          1 STX      -0.461100
      5 CD           5.4870    -0.7330     0.0060 c3         1 STX       0.144100
      6 C5           0.4130    -0.1410     0.0360 cc         1 STX       0.321500
      7 N4           0.1810    -1.1310     0.8930 nd         1 STX      -0.333000
      8 N3          -1.1790    -1.2130     1.0390 nd         1 STX      -0.367000
      9 C2          -1.6950    -0.2710     0.2650 cc         1 STX       0.437300
     10 O1          -0.7430     0.4400    -0.3940 os         1 STX      -0.241000
     11 C6          -3.1650     0.0740     0.0520 c3         1 STX      -0.068300
     12 C7          -4.0890    -0.8520     0.8940 c3         1 STX      -0.086767
     13 C8          -3.4190     1.5460     0.4760 c3         1 STX      -0.086767
     14 C9          -3.5260    -0.0950    -1.4480 c3         1 STX      -0.086767
     15 HN           4.4370     0.9400    -0.5480 hn         1 STX       0.421000
     16 HA1          2.7850    -1.4760     0.0490 h1         1 STX       0.070700
     17 HA2          3.0460    -0.1520     1.1860 h1         1 STX       0.070700
     18 HD1          6.3860    -0.4660    -0.5650 h1         1 STX       0.034700
     19 HD2          5.6410    -0.4220     1.0480 h1         1 STX       0.034700
     20 HD3          5.3850    -1.8270    -0.0140 h1         1 STX       0.034700
     21 H71         -3.8750    -0.7530     1.9650 hc         1 STX       0.047811
     22 H72         -5.1450    -0.6000     0.7380 hc         1 STX       0.047811
     23 H73         -3.9510    -1.9040     0.6160 hc         1 STX       0.047811
     24 H81         -2.8150     2.2400    -0.1220 hc         1 STX       0.047811
     25 H82         -4.4730     1.8190     0.3430 hc         1 STX       0.047811
     26 H83         -3.1610     1.6980     1.5320 hc         1 STX       0.047811
     27 H91         -3.3460    -1.1250    -1.7790 hc         1 STX       0.047811
     28 H92         -4.5830     0.1380    -1.6280 hc         1 STX       0.047811
     29 H93         -2.9240     0.5720    -2.0780 hc         1 STX       0.047811
@<TRIPOS>BOND
     1     1     2 1   
     2     1     5 1   
     3     1    15 1   
     4     2     3 1   
     5     2    16 1   
     6     2    17 1   
     7     3     4 2   
     8     3     6 1   
     9     5    18 1   
    10     5    19 1   
    11     5    20 1   
    12     6     7 2   
    13     6    10 1   
    14     7     8 1   
    15     8     9 2   
    16     9    10 1   
    17     9    11 1   
    18    11    12 1   
    19    11    13 1   
    20    11    14 1   
    21    12    21 1   
    22    12    22 1   
    23    12    23 1   
    24    13    24 1   
    25    13    25 1   
    26    13    26 1   
    27    14    27 1   
    28    14    28 1   
    29    14    29 1   
@<TRIPOS>SUBSTRUCTURE
     1 STX         1 TEMP              0 ****  ****    0 ROOT
