@<TRIPOS>MOLECULE
STX
   29    29     1     0     0
SMALL
abcg2


@<TRIPOS>ATOM
      1 N            4.1520     0.0370    -0.5110 n7         1 STX      -0.848400
      2 CA           2.9330    -0.4180     0.0980 c3         1 STX       0.072800
      3 C            1.7260     0.2650    -0.4780 c          1 STX       0.509600
      4 O            1.7590     1.1450    -1.3000 o          1 STX      -0.461100
      5 CD           5.3100    -0.6690     0.0010 c3         1 STX       0.144100
      6 C5           0.4200    -0.1970     0.0490 cc         1 STX       0.321500
      7 N4           0.1850    -1.1240     0.9060 nd         1 STX      -0.333000
      8 N3          -1.1680    -1.1800     1.0560 nd         1 STX      -0.367000
      9 C2          -1.6690    -0.2800     0.2770 cc         1 STX       0.437300
     10 O1          -0.7080     0.3750    -0.3870 os         1 STX      -0.241000
     11 C6          -3.0990     0.0840     0.0510 c3         1 STX      -0.068300
     12 C7          -3.9840    -0.8140     0.9130 c3         1 STX      -0.086767
     13 C8          -3.3100     1.5530     0.4420 c3         1 STX      -0.086767
     14 C9          -3.4400    -0.1180    -1.4320 c3         1 STX      -0.086767
     15 HN           4.2660     1.0280    -0.3460 hn         1 STX       0.421000
     16 HA1          2.8210    -1.4960    -0.0680 h1         1 STX       0.070700
     17 HA2          2.8930    -0.2950     1.1930 h1         1 STX       0.070700
     18 HD1          6.2130    -0.2670    -0.4560 h1         1 STX       0.034700
     19 HD2          5.4260    -0.6110     1.0920 h1         1 STX       0.034700
     20 HD3          5.2470    -1.7260    -0.2650 h1         1 STX       0.034700
     21 H71         -3.7820    -0.6810     1.9760 hc         1 STX       0.047811
     22 H72         -5.0300    -0.5600     0.7370 hc         1 STX       0.047811
     23 H73         -3.8500    -1.8680     0.6710 hc         1 STX       0.047811
     24 H81         -2.7070     2.2300    -0.1630 hc         1 STX       0.047811
     25 H82         -4.3570     1.8180     0.2920 hc         1 STX       0.047811
     26 H83         -3.0680     1.7220     1.4920 hc         1 STX       0.047811
     27 H91         -3.2840    -1.1530    -1.7400 hc         1 STX       0.047811
     28 H92         -4.4910     0.1240    -1.5920 hc         1 STX       0.047811
     29 H93         -2.8490     0.5270    -2.0820 hc         1 STX       0.047811
@<TRIPOS>BOND
     1     1     2 1   
     2     1     5 1   
     3     1    15 1   
     4     2     3 1   
     5     2    16 1   
     6     2    17 1   
     7     3     4 2   
     8     3     6 1   
     9     5    18 1   
    10     5    19 1   
    11     5    20 1   
    12     6     7 2   
    13     6    10 1   
    14     7     8 1   
    15     8     9 2   
    16     9    10 1   
    17     9    11 1   
    18    11    12 1   
    19    11    13 1   
    20    11    14 1   
    21    12    21 1   
    22    12    22 1   
    23    12    23 1   
    24    13    24 1   
    25    13    25 1   
    26    13    26 1   
    27    14    27 1   
    28    14    28 1   
    29    14    29 1   
@<TRIPOS>SUBSTRUCTURE
     1 STX         1 TEMP              0 ****  ****    0 ROOT
