@<TRIPOS>MOLECULE
STZ
   33    33     1     0     0
SMALL
abcg2


@<TRIPOS>ATOM
      1 O3           0.2770     2.2530     0.8400 oh         1 STZ      -0.643000
      2 C3           0.8770     1.2530     0.0620 c6         1 STZ       0.161300
      3 C4           2.3600     1.0890     0.3860 c6         1 STZ       0.097300
      4 O4           2.9970     2.2900     0.0140 oh         1 STZ      -0.722000
      5 C5           2.9250    -0.1180    -0.3700 c6         1 STZ       0.154300
      6 C6           4.3710    -0.3890    -0.0170 c3         1 STZ       0.171600
      7 O6           4.8470    -1.4400    -0.8210 oh         1 STZ      -0.705000
      8 O5           2.1730    -1.2660    -0.0360 os         1 STZ      -0.467000
      9 C1           0.8280    -1.1920    -0.4380 c6         1 STZ       0.382300
     10 O1           0.2040    -2.3750    -0.1140 oh         1 STZ      -0.622000
     11 C2           0.1310    -0.0520     0.3090 c6         1 STZ       0.094700
     12 N2          -1.2420     0.0720    -0.1090 ns         1 STZ      -0.481900
     13 CAM         -2.2670    -0.3620     0.6330 c          1 STZ       0.681100
     14 OAG         -2.1860    -0.8650     1.7320 o          1 STZ      -0.581100
     15 NAN         -3.5510    -0.1830     0.0420 n          1 STZ      -0.225800
     16 CAH         -4.7660    -0.6170     0.7070 c3         1 STZ       0.062300
     17 NAO         -3.5910     0.4130    -1.1290 n2         1 STZ       0.066700
     18 OAP         -4.6880     0.5720    -1.5990 o          1 STZ      -0.252300
     19 H3           0.7540     3.0750     0.6830 ho         1 STZ       0.460000
     20 HA           0.8030     1.4960    -1.0120 h1         1 STZ       0.041700
     21 H4           2.4600     0.9050     1.4650 h1         1 STZ       0.062700
     22 H2           0.1540    -0.2780     1.3780 h1         1 STZ       0.119700
     23 HB           3.7250     2.4620     0.6170 ho         1 STZ       0.514000
     24 H5           2.8540     0.0830    -1.4520 h1         1 STZ       0.059700
     25 H61C         4.9440     0.5310    -0.1770 h1         1 STZ       0.027200
     26 H62C         4.4390    -0.6280     1.0540 h1         1 STZ       0.027200
     27 H6           5.7740    -1.5810    -0.6090 ho         1 STZ       0.507000
     28 H1           0.7830    -0.9940    -1.5240 h2         1 STZ       0.017700
     29 HC           0.4080    -3.0380    -0.7820 ho         1 STZ       0.463000
     30 HD          -1.4340     0.4700    -1.0160 hn         1 STZ       0.336500
     31 HAH1        -5.3940     0.2400     0.9500 h1         1 STZ       0.063367
     32 HAH2        -5.3220    -1.2960     0.0640 h1         1 STZ       0.063367
     33 HAH3        -4.4960    -1.1310     1.6200 h1         1 STZ       0.063367
@<TRIPOS>BOND
     1     1     2 1   
     2     1    19 1   
     3     2     3 1   
     4     2    11 1   
     5     2    20 1   
     6     3     4 1   
     7     3     5 1   
     8     3    21 1   
     9     4    23 1   
    10     5     6 1   
    11     5     8 1   
    12     5    24 1   
    13     6     7 1   
    14     6    25 1   
    15     6    26 1   
    16     7    27 1   
    17     8     9 1   
    18     9    10 1   
    19     9    11 1   
    20     9    28 1   
    21    10    29 1   
    22    11    12 1   
    23    11    22 1   
    24    12    13 1   
    25    12    30 1   
    26    13    14 2   
    27    13    15 1   
    28    15    16 1   
    29    15    17 1   
    30    16    31 1   
    31    16    32 1   
    32    16    33 1   
    33    17    18 2   
@<TRIPOS>SUBSTRUCTURE
     1 STZ         1 TEMP              0 ****  ****    0 ROOT
