@<TRIPOS>MOLECULE
STZ
   33    33     1     0     0
SMALL
No Charge or Current Charge


@<TRIPOS>ATOM
      1 O3           0.2620     2.4520     0.5440 oh         1 STZ      -0.643000
      2 C3           0.8240     1.2980    -0.1010 c6         1 STZ       0.161300
      3 C4           2.3330     1.1790     0.2710 c6         1 STZ       0.097300
      4 O4           3.0270     2.3850    -0.1250 oh         1 STZ      -0.722000
      5 C5           2.9240    -0.0980    -0.4110 c6         1 STZ       0.154300
      6 C6           4.4180    -0.3630    -0.0240 c3         1 STZ       0.171600
      7 O6           4.9480    -1.5750    -0.5970 oh         1 STZ      -0.705000
      8 O5           2.1430    -1.2570    -0.0220 os         1 STZ      -0.467000
      9 C1           0.7720    -1.1990    -0.4230 c6         1 STZ       0.382300
     10 O1           0.2360    -2.4460    -0.0330 oh         1 STZ      -0.622000
     11 C2           0.0500    -0.0000     0.2760 c6         1 STZ       0.094700
     12 N2          -1.3820     0.1030    -0.1020 ns         1 STZ      -0.481900
     13 CAM         -2.4360    -0.4860     0.5610 c          1 STZ       0.681100
     14 OAG         -2.2690    -1.1220     1.5930 o          1 STZ      -0.581100
     15 NAN         -3.7180    -0.3010    -0.0110 n          1 STZ      -0.225800
     16 CAH         -4.8930    -0.9040     0.6510 c3         1 STZ       0.062300
     17 NAO         -3.8560     0.3940    -1.1810 n2         1 STZ       0.066700
     18 OAP         -4.0790     1.5860    -1.0530 o          1 STZ      -0.252300
     19 H3           0.9530     3.1470     0.4520 ho         1 STZ       0.460000
     20 HA           0.7560     1.4270    -1.1920 h1         1 STZ       0.041700
     21 H4           2.4050     1.0450     1.3620 h1         1 STZ       0.062700
     22 H2           0.1220    -0.1450     1.3630 h1         1 STZ       0.119700
     23 HB           3.8350     2.4680     0.4360 ho         1 STZ       0.514000
     24 H5           2.8700     0.0140    -1.5040 h1         1 STZ       0.059700
     25 H61C         5.0180     0.4950    -0.3550 h1         1 STZ       0.027200
     26 H62C         4.4850    -0.4060     1.0710 h1         1 STZ       0.027200
     27 H6           5.8580    -1.6890    -0.2370 ho         1 STZ       0.507000
     28 H1           0.7110    -1.0950    -1.5160 h2         1 STZ       0.017700
     29 HC           1.0330    -2.9960     0.1130 ho         1 STZ       0.463000
     30 HD          -1.6270     0.6560    -0.9130 hn         1 STZ       0.336500
     31 HAH1        -4.9910    -0.5030     1.6680 h1         1 STZ       0.063367
     32 HAH2        -5.8060    -0.6720     0.0880 h1         1 STZ       0.063367
     33 HAH3        -4.7730    -1.9930     0.7020 h1         1 STZ       0.063367
@<TRIPOS>BOND
     1     1     2 1   
     2     1    19 1   
     3     2     3 1   
     4     2    11 1   
     5     2    20 1   
     6     3     4 1   
     7     3     5 1   
     8     3    21 1   
     9     4    23 1   
    10     5     6 1   
    11     5     8 1   
    12     5    24 1   
    13     6     7 1   
    14     6    25 1   
    15     6    26 1   
    16     7    27 1   
    17     8     9 1   
    18     9    10 1   
    19     9    11 1   
    20     9    28 1   
    21    10    29 1   
    22    11    12 1   
    23    11    22 1   
    24    12    13 1   
    25    12    30 1   
    26    13    14 2   
    27    13    15 1   
    28    15    16 1   
    29    15    17 1   
    30    16    31 1   
    31    16    32 1   
    32    16    33 1   
    33    17    18 2   
@<TRIPOS>SUBSTRUCTURE
     1 STZ         1 TEMP              0 ****  ****    0 ROOT
