@<TRIPOS>MOLECULE
SU0
   43    45     1     0     0
SMALL
No Charge or Current Charge


@<TRIPOS>ATOM
      1 C1          -4.3260    -0.3670    -0.0140 ca         1 SU0      -0.308500
      2 N1          -5.4950    -2.2310    -1.5000 n8         1 SU0      -1.002100
      3 O1          -6.5770    -1.6630     0.6100 o          1 SU0      -0.544500
      4 S1          -5.9250    -0.9990    -0.5150 sy         1 SU0       1.130600
      5 C2          -3.6650     0.5840    -0.8130 ca         1 SU0       0.023000
      6 O2          -6.6100    -0.0380    -1.3810 o          1 SU0      -0.544500
      7 C3          -2.4090     1.0830    -0.4230 ca         1 SU0      -0.178500
      8 O3           0.0750     2.8300    -0.1760 o          1 SU0      -0.542100
      9 C4          -1.8010     0.6400     0.7710 ca         1 SU0       0.036000
     10 O4           5.4980     3.3400    -1.2060 o          1 SU0      -0.478000
     11 C5          -2.4690    -0.3150     1.5590 ca         1 SU0      -0.178500
     12 C6          -3.7240    -0.8180     1.1760 ca         1 SU0       0.023000
     13 C7           0.3230     2.0870     0.7660 c          1 SU0       0.608100
     14 N7          -0.5340     1.0950     1.2260 ns         1 SU0      -0.152000
     15 C8           1.6340     2.2090     1.5490 c3         1 SU0      -0.134200
     16 C9           2.8460     1.8100     0.7400 cc         1 SU0       0.058600
     17 C10          3.6420     2.7560     0.1290 cd         1 SU0      -0.318200
     18 C11          4.8280     2.4590    -0.6870 c          1 SU0       0.677300
     19 O12          5.1380     1.1430    -0.8360 os         1 SU0      -0.334200
     20 C13          4.4110     0.1350    -0.2680 ca         1 SU0       0.214100
     21 C14          4.8280    -1.1840    -0.4910 ca         1 SU0      -0.179000
     22 C15          4.1230    -2.2540     0.0680 ca         1 SU0       0.194100
     23 C16          2.9880    -1.9920     0.8600 ca         1 SU0      -0.224000
     24 C17          2.5700    -0.6690     1.0840 ca         1 SU0      -0.013000
     25 C18          3.2750     0.4190     0.5190 ca         1 SU0      -0.185800
     26 O19          4.5780    -3.5320    -0.1840 os         1 SU0      -0.331100
     27 C20          3.9230    -4.6980     0.3450 c3         1 SU0       0.147900
     28 H10          3.4310     3.8140     0.2120 ha         1 SU0       0.212000
     29 H20          2.8860    -4.7590    -0.0110 h1         1 SU0       0.046367
     30 H20A         4.4460    -5.6070     0.0240 h1         1 SU0       0.046367
     31 H20B         3.9180    -4.6790     1.4430 h1         1 SU0       0.046367
     32 HN1         -6.0270    -2.9960    -1.0930 hn         1 SU0       0.472000
     33 H2          -4.1160     0.9390    -1.7400 ha         1 SU0       0.139000
     34 H3          -1.9260     1.8070    -1.0700 ha         1 SU0       0.134500
     35 H14          5.7050    -1.3770    -1.1010 ha         1 SU0       0.155000
     36 H5          -2.0150    -0.6730     2.4810 ha         1 SU0       0.134500
     37 H6          -4.2190    -1.5540     1.8090 ha         1 SU0       0.139000
     38 H16          2.4180    -2.7990     1.3120 ha         1 SU0       0.124000
     39 HN7         -0.1920     0.5960     2.0360 hn         1 SU0       0.153000
     40 H17          1.6940    -0.5110     1.7040 ha         1 SU0       0.110000
     41 H8           1.7380     3.2590     1.8450 hc         1 SU0       0.076700
     42 H8A          1.5880     1.6130     2.4670 hc         1 SU0       0.076700
     43 HN1A        -4.5390    -2.4150    -1.2080 hn         1 SU0       0.472000
@<TRIPOS>BOND
     1     1     4 1   
     2     1     5 ar  
     3     1    12 ar  
     4     2     4 1   
     5     2    32 1   
     6     2    43 1   
     7     3     4 2   
     8     4     6 2   
     9     5     7 ar  
    10     5    33 1   
    11     7     9 ar  
    12     7    34 1   
    13     8    13 2   
    14     9    11 ar  
    15     9    14 1   
    16    10    18 2   
    17    11    12 ar  
    18    11    36 1   
    19    12    37 1   
    20    13    14 1   
    21    13    15 1   
    22    14    39 1   
    23    15    16 1   
    24    15    41 1   
    25    15    42 1   
    26    16    17 2   
    27    16    25 1   
    28    17    18 1   
    29    17    28 1   
    30    18    19 1   
    31    19    20 1   
    32    20    21 ar  
    33    20    25 ar  
    34    21    22 ar  
    35    21    35 1   
    36    22    23 ar  
    37    22    26 1   
    38    23    24 ar  
    39    23    38 1   
    40    24    25 ar  
    41    24    40 1   
    42    26    27 1   
    43    27    29 1   
    44    27    30 1   
    45    27    31 1   
@<TRIPOS>SUBSTRUCTURE
     1 SU0         1 TEMP              0 ****  ****    0 ROOT
