@<TRIPOS>MOLECULE
SU0
   43    45     1     0     0
SMALL
bcc


@<TRIPOS>ATOM
      1 C1          -4.6190    -0.1200     0.0680 ca         1 SU0      -0.308500
      2 N1          -6.0820    -2.1080    -0.8790 n8         1 SU0      -0.891700
      3 O1          -7.1360    -0.3500     0.7120 o          1 SU0      -0.615300
      4 S1          -6.2580    -0.5250    -0.4380 sy         1 SU0       1.272200
      5 C2          -3.6370     0.0670    -0.8950 ca         1 SU0       0.005000
      6 O2          -6.5800     0.1920    -1.6650 o          1 SU0      -0.615300
      7 C3          -2.3490     0.4060    -0.5250 ca         1 SU0      -0.196500
      8 O3           0.4560     1.1760    -0.5940 o          1 SU0      -0.542100
      9 C4          -2.0340     0.5620     0.8290 ca         1 SU0       0.128600
     10 O4           5.3560     3.5880    -0.6660 o          1 SU0      -0.553500
     11 C5          -3.0330     0.3660     1.7880 ca         1 SU0      -0.196500
     12 C6          -4.3190     0.0290     1.4150 ca         1 SU0       0.005000
     13 C7           0.3570     1.2090     0.6140 c          1 SU0       0.675100
     14 N7          -0.7740     0.9070     1.3060 ns         1 SU0      -0.478100
     15 C8           1.5070     1.6350     1.5120 c3         1 SU0      -0.134200
     16 C9           2.8180     1.5580     0.7990 cc         1 SU0       0.058600
     17 C10          3.4590     2.6790     0.4130 cd         1 SU0      -0.268200
     18 C11          4.7220     2.6350    -0.2880 c          1 SU0       0.752800
     19 O12          5.2360     1.4040    -0.5470 os         1 SU0      -0.334200
     20 C13          4.6290     0.2550    -0.1710 ca         1 SU0       0.214100
     21 C14          5.2710    -0.9230    -0.4960 ca         1 SU0      -0.197000
     22 C15          4.6920    -2.1360    -0.1290 ca         1 SU0       0.194100
     23 C16          3.4730    -2.1470     0.5620 ca         1 SU0      -0.242000
     24 C17          2.8550    -0.9550     0.8720 ca         1 SU0      -0.031000
     25 C18          3.4100     0.2760     0.5150 ca         1 SU0      -0.185800
     26 O19          5.3690    -3.2360    -0.4730 os         1 SU0      -0.307900
     27 C20          4.8400    -4.5060    -0.1290 c3         1 SU0       0.124700
     28 H10          3.0500     3.6600     0.6110 ha         1 SU0       0.162000
     29 H20          3.8690    -4.6810    -0.5980 h1         1 SU0       0.046367
     30 H20A         5.5480    -5.2410    -0.5020 h1         1 SU0       0.046367
     31 H20B         4.7430    -4.6250     0.9520 h1         1 SU0       0.046367
     32 HN1         -6.8600    -2.4220    -1.4520 hn         1 SU0       0.416800
     33 H2          -3.8640    -0.0490    -1.9470 ha         1 SU0       0.157000
     34 H3          -1.6060     0.5450    -1.2920 ha         1 SU0       0.152500
     35 H14          6.2140    -0.9060    -1.0290 ha         1 SU0       0.173000
     36 H5          -2.8020     0.4830     2.8390 ha         1 SU0       0.152500
     37 H6          -5.0730    -0.1080     2.1760 ha         1 SU0       0.157000
     38 H16          3.0030    -3.0730     0.8610 ha         1 SU0       0.142000
     39 HN7         -0.7090     0.9840     2.3110 hn         1 SU0       0.319500
     40 H17          1.9180    -0.9890     1.4130 ha         1 SU0       0.128000
     41 H8           1.3140     2.6630     1.8270 hc         1 SU0       0.076700
     42 H8A          1.5270     1.0330     2.4250 hc         1 SU0       0.076700
     43 HN1A        -5.9640    -2.7250    -0.0820 hn         1 SU0       0.416800
@<TRIPOS>BOND
     1     1     4 1   
     2     1     5 ar  
     3     1    12 ar  
     4     2     4 1   
     5     2    32 1   
     6     2    43 1   
     7     3     4 2   
     8     4     6 2   
     9     5     7 ar  
    10     5    33 1   
    11     7     9 ar  
    12     7    34 1   
    13     8    13 2   
    14     9    11 ar  
    15     9    14 1   
    16    10    18 2   
    17    11    12 ar  
    18    11    36 1   
    19    12    37 1   
    20    13    14 1   
    21    13    15 1   
    22    14    39 1   
    23    15    16 1   
    24    15    41 1   
    25    15    42 1   
    26    16    17 2   
    27    16    25 1   
    28    17    18 1   
    29    17    28 1   
    30    18    19 1   
    31    19    20 1   
    32    20    21 ar  
    33    20    25 ar  
    34    21    22 ar  
    35    21    35 1   
    36    22    23 ar  
    37    22    26 1   
    38    23    24 ar  
    39    23    38 1   
    40    24    25 ar  
    41    24    40 1   
    42    26    27 1   
    43    27    29 1   
    44    27    30 1   
    45    27    31 1   
@<TRIPOS>SUBSTRUCTURE
     1 SU0         1 TEMP              0 ****  ****    0 ROOT
