@<TRIPOS>MOLECULE
SU1
   37    39     1     0     0
SMALL
No Charge or Current Charge


@<TRIPOS>ATOM
      1 N1           1.2670    -0.3370    -3.8090 ns         1 SU1      -0.395100
      2 C2           1.6990    -0.2970    -2.5110 c          1 SU1       0.586200
      3 O2           2.8530    -0.4490    -2.1380 o          1 SU1      -0.607000
      4 C3           0.4500    -0.0360    -1.7350 cc         1 SU1      -0.252400
      5 C4          -2.0120     0.2850    -2.5560 ca         1 SU1      -0.067000
      6 C5          -2.8190     0.3160    -3.7160 ca         1 SU1      -0.135000
      7 C6          -2.2530     0.1190    -5.0000 ca         1 SU1      -0.101000
      8 C7          -0.8680    -0.1110    -5.1420 ca         1 SU1      -0.147000
      9 C8          -0.0970    -0.1360    -3.9770 ca         1 SU1       0.038600
     10 C9          -0.6360     0.0540    -2.7170 ca         1 SU1      -0.062800
     11 C10          0.3080     0.1030    -0.3760 cf         1 SU1       0.062800
     12 N2           2.6620    -0.2140     0.5970 na         1 SU1      -0.086000
     13 C15          1.2920     0.0340     0.7150 cd         1 SU1      -0.244800
     14 C16          1.0510     0.1920     2.0610 cc         1 SU1      -0.024300
     15 C17          2.2760     0.0300     2.7610 cc         1 SU1      -0.184300
     16 C18          3.2670    -0.2190     1.8530 cd         1 SU1      -0.152000
     17 C11          2.4230     0.1220     4.2580 c3         1 SU1      -0.007800
     18 C12         -0.2700     0.4870     2.7380 c3         1 SU1      -0.011100
     19 C13         -1.0950    -0.7880     3.0290 c3         1 SU1      -0.203400
     20 C14         -2.4220    -0.4090     3.7020 c          1 SU1       0.717000
     21 O3          -3.3800    -0.1570     2.9860 o          1 SU1      -0.738500
     22 O4          -2.4480    -0.3250     4.9200 o          1 SU1      -0.738500
     23 HN1          1.9010    -0.5020    -4.5800 hn         1 SU1       0.327500
     24 H4          -2.4530     0.4360    -1.5740 ha         1 SU1       0.129000
     25 H5          -3.8880     0.4920    -3.6210 ha         1 SU1       0.111000
     26 H6          -2.8900     0.1460    -5.8810 ha         1 SU1       0.103000
     27 H7          -0.4190    -0.2630    -6.1200 ha         1 SU1       0.108000
     28 H101        -0.7180     0.2870    -0.0570 ha         1 SU1       0.202000
     29 H5'1         4.3270    -0.3960     1.9950 h4         1 SU1       0.135000
     30 H111         2.2200     1.1410     4.6100 hc         1 SU1       0.034367
     31 H112         1.7290    -0.5590     4.7650 hc         1 SU1       0.034367
     32 H113         3.4400    -0.1430     4.5710 hc         1 SU1       0.034367
     33 H121        -0.1030     1.0290     3.6760 hc         1 SU1       0.051700
     34 H122        -0.8620     1.1660     2.1120 hc         1 SU1       0.051700
     35 H131        -1.2770    -1.2570     2.0540 hc         1 SU1       0.022700
     36 H132        -0.4800    -1.3970     3.7030 hc         1 SU1       0.022700
     37 H2           3.1390    -0.3710    -0.2930 hn         1 SU1       0.389000
@<TRIPOS>BOND
     1     1     2 1   
     2     1     9 1   
     3     1    23 1   
     4     2     3 2   
     5     2     4 1   
     6     4    10 1   
     7     4    11 2   
     8     5     6 ar  
     9     5    10 ar  
    10     5    24 1   
    11     6     7 ar  
    12     6    25 1   
    13     7     8 ar  
    14     7    26 1   
    15     8     9 ar  
    16     8    27 1   
    17     9    10 ar  
    18    11    13 1   
    19    11    28 1   
    20    12    13 1   
    21    12    16 1   
    22    12    37 1   
    23    13    14 2   
    24    14    15 1   
    25    14    18 1   
    26    15    16 2   
    27    15    17 1   
    28    16    29 1   
    29    17    30 1   
    30    17    31 1   
    31    17    32 1   
    32    18    19 1   
    33    18    33 1   
    34    18    34 1   
    35    19    20 1   
    36    19    35 1   
    37    19    36 1   
    38    20    21 1   
    39    20    22 1   
@<TRIPOS>SUBSTRUCTURE
     1 SU1         1 TEMP              0 ****  ****    0 ROOT
