@<TRIPOS>MOLECULE
SU1
   37    39     1     0     0
SMALL
bcc


@<TRIPOS>ATOM
      1 H1           1.2800    -0.4500    -3.8230 na         1 SU1      -0.316000
      2 H2           1.6670    -0.3850    -2.5160 c          1 SU1       0.367000
      3 H2           2.8190    -0.5800    -2.1330 o          1 SU1      -0.407000
      4 H3           0.4560    -0.0500    -1.7430 cc         1 SU1      -0.245000
      5 H4          -1.9720     0.3520    -2.6070 ca         1 SU1      -0.085000
      6 H5          -2.7500     0.3850    -3.7600 ca         1 SU1      -0.153000
      7 H6          -2.1840     0.1330    -5.0070 ca         1 SU1      -0.119000
      8 H7          -0.8290    -0.1600    -5.1340 ca         1 SU1      -0.165000
      9 H8          -0.0710    -0.1890    -3.9800 ca         1 SU1       0.046000
     10 H9          -0.6210     0.0630    -2.7160 ca         1 SU1      -0.051000
     11 H10          0.3230     0.1280    -0.3970 c2         1 SU1       0.101000
     12 H2           2.5840    -0.2080     0.5570 na         1 SU1      -0.136000
     13 H15          1.2440     0.0620     0.6690 cc         1 SU1      -0.158000
     14 H16          0.9720     0.2640     2.0330 cd         1 SU1      -0.017000
     15 H17          2.1850     0.1010     2.7240 cd         1 SU1      -0.177000
     16 H18          3.1520    -0.1860     1.7700 cc         1 SU1      -0.095000
     17 H11          2.4000     0.2180     4.1960 c3         1 SU1      -0.133000
     18 H12         -0.3550     0.5380     2.6610 c3         1 SU1      -0.097000
     19 H13         -1.0040    -0.7330     3.2050 c3         1 SU1      -0.232000
     20 H14         -2.3640    -0.5360     3.9010 c          1 SU1       0.347000
     21 H3          -2.8460     0.6130     3.9230 o          1 SU1      -0.578500
     22 H4          -2.8770    -1.5650     4.3870 o          1 SU1      -0.578500
     23 HN1          1.9180    -0.6590    -4.5760 ha         1 SU1       0.241000
     24 H4          -2.4240     0.5520    -1.6430 ha         1 SU1       0.147000
     25 H5          -3.8070     0.6070    -3.6870 ha         1 SU1       0.129000
     26 H6          -2.8050     0.1650    -5.8930 ha         1 SU1       0.121000
     27 H7          -0.3890    -0.3570    -6.1030 ha         1 SU1       0.126000
     28 H101        -0.6820     0.3710    -0.0660 ha         1 SU1       0.152000
     29 H5'1         4.2070    -0.3710     1.8990 ha         1 SU1       0.153000
     30 H111         2.1110     1.2030     4.5710 ha         1 SU1       0.073667
     31 H112         1.8120    -0.5160     4.7500 ha         1 SU1       0.073667
     32 H113         3.4470     0.0620     4.4570 ha         1 SU1       0.073667
     33 H121        -0.2220     1.2570     3.4740 ha         1 SU1       0.091000
     34 H122        -1.0300     1.0200     1.9510 ha         1 SU1       0.091000
     35 H131        -1.1350    -1.4530     2.3890 ha         1 SU1       0.062000
     36 H132        -0.3250    -1.2260     3.9090 ha         1 SU1       0.062000
     37 H2           3.0300    -0.3960    -0.3400 ha         1 SU1       0.289000
@<TRIPOS>BOND
     1     1     2 1   
     2     1     9 1   
     3     1    23 1   
     4     2     3 2   
     5     2     4 1   
     6     4    10 1   
     7     4    11 2   
     8     5     6 ar  
     9     5    10 ar  
    10     5    24 1   
    11     6     7 ar  
    12     6    25 1   
    13     7     8 ar  
    14     7    26 1   
    15     8     9 ar  
    16     8    27 1   
    17     9    10 ar  
    18    11    13 1   
    19    11    28 1   
    20    12    13 1   
    21    12    16 1   
    22    12    37 1   
    23    13    14 2   
    24    14    15 1   
    25    14    18 1   
    26    15    16 2   
    27    15    17 1   
    28    16    29 1   
    29    17    30 1   
    30    17    31 1   
    31    17    32 1   
    32    18    19 1   
    33    18    33 1   
    34    18    34 1   
    35    19    20 1   
    36    19    35 1   
    37    19    36 1   
    38    20    21 1   
    39    20    22 1   
@<TRIPOS>SUBSTRUCTURE
     1 SU1         1 TEMP              0 ****  ****    0 ROOT
