@<TRIPOS>MOLECULE
SU1
   37    39     1     0     0
SMALL
abcg2


@<TRIPOS>ATOM
      1 N1           1.2800    -0.4500    -3.8230 ns         1 SU1      -0.395100
      2 C2           1.6670    -0.3850    -2.5160 c          1 SU1       0.586200
      3 O2           2.8190    -0.5800    -2.1330 o          1 SU1      -0.607000
      4 C3           0.4560    -0.0500    -1.7430 cc         1 SU1      -0.252400
      5 C4          -1.9720     0.3520    -2.6070 ca         1 SU1      -0.067000
      6 C5          -2.7500     0.3850    -3.7600 ca         1 SU1      -0.135000
      7 C6          -2.1840     0.1330    -5.0070 ca         1 SU1      -0.101000
      8 C7          -0.8290    -0.1600    -5.1340 ca         1 SU1      -0.147000
      9 C8          -0.0710    -0.1890    -3.9800 ca         1 SU1       0.038600
     10 C9          -0.6210     0.0630    -2.7160 ca         1 SU1      -0.062800
     11 C10          0.3230     0.1280    -0.3970 cf         1 SU1       0.062800
     12 N2           2.5840    -0.2080     0.5570 na         1 SU1      -0.086000
     13 C15          1.2440     0.0620     0.6690 cd         1 SU1      -0.244800
     14 C16          0.9720     0.2640     2.0330 cc         1 SU1      -0.024300
     15 C17          2.1850     0.1010     2.7240 cc         1 SU1      -0.184300
     16 C18          3.1520    -0.1860     1.7700 cd         1 SU1      -0.152000
     17 C11          2.4000     0.2180     4.1960 c3         1 SU1      -0.007800
     18 C12         -0.3550     0.5380     2.6610 c3         1 SU1      -0.011100
     19 C13         -1.0040    -0.7330     3.2050 c3         1 SU1      -0.203400
     20 C14         -2.3640    -0.5360     3.9010 c          1 SU1       0.717000
     21 O3          -2.8460     0.6130     3.9230 o          1 SU1      -0.738500
     22 O4          -2.8770    -1.5650     4.3870 o          1 SU1      -0.738500
     23 HN1          1.9180    -0.6590    -4.5760 hn         1 SU1       0.327500
     24 H4          -2.4240     0.5520    -1.6430 ha         1 SU1       0.129000
     25 H5          -3.8070     0.6070    -3.6870 ha         1 SU1       0.111000
     26 H6          -2.8050     0.1650    -5.8930 ha         1 SU1       0.103000
     27 H7          -0.3890    -0.3570    -6.1030 ha         1 SU1       0.108000
     28 H101        -0.6820     0.3710    -0.0660 ha         1 SU1       0.202000
     29 H5'1         4.2070    -0.3710     1.8990 h4         1 SU1       0.135000
     30 H111         2.1110     1.2030     4.5710 hc         1 SU1       0.034367
     31 H112         1.8120    -0.5160     4.7500 hc         1 SU1       0.034367
     32 H113         3.4470     0.0620     4.4570 hc         1 SU1       0.034367
     33 H121        -0.2220     1.2570     3.4740 hc         1 SU1       0.051700
     34 H122        -1.0300     1.0200     1.9510 hc         1 SU1       0.051700
     35 H131        -1.1350    -1.4530     2.3890 hc         1 SU1       0.022700
     36 H132        -0.3250    -1.2260     3.9090 hc         1 SU1       0.022700
     37 H2           3.0300    -0.3960    -0.3400 hn         1 SU1       0.389000
@<TRIPOS>BOND
     1     1     2 1   
     2     1     9 1   
     3     1    23 1   
     4     2     3 2   
     5     2     4 1   
     6     4    10 1   
     7     4    11 2   
     8     5     6 ar  
     9     5    10 ar  
    10     5    24 1   
    11     6     7 ar  
    12     6    25 1   
    13     7     8 ar  
    14     7    26 1   
    15     8     9 ar  
    16     8    27 1   
    17     9    10 ar  
    18    11    13 1   
    19    11    28 1   
    20    12    13 1   
    21    12    16 1   
    22    12    37 1   
    23    13    14 2   
    24    14    15 1   
    25    14    18 1   
    26    15    16 2   
    27    15    17 1   
    28    16    29 1   
    29    17    30 1   
    30    17    31 1   
    31    17    32 1   
    32    18    19 1   
    33    18    33 1   
    34    18    34 1   
    35    19    20 1   
    36    19    35 1   
    37    19    36 1   
    38    20    21 1   
    39    20    22 1   
@<TRIPOS>SUBSTRUCTURE
     1 SU1         1 TEMP              0 ****  ****    0 ROOT
