@<TRIPOS>MOLECULE
SU2
   46    49     1     0     0
SMALL
No Charge or Current Charge


@<TRIPOS>ATOM
      1 N1           1.7800    -0.2810     4.3990 ns         1 SU2      -0.152000
      2 C2           1.3840    -0.5170     3.0980 c          1 SU2       0.565000
      3 O2           2.1150    -0.8670     2.1800 o          1 SU2      -0.516000
      4 C3          -0.1840    -0.4380     3.1820 c5         1 SU2      -0.096400
      5 C4          -1.6430    -0.2280     5.3880 ca         1 SU2      -0.056000
      6 C5          -1.5920    -0.0550     6.7890 ca         1 SU2      -0.142000
      7 C6          -0.3500     0.0590     7.4580 ca         1 SU2      -0.074000
      8 C7           0.8570    -0.0000     6.7310 ca         1 SU2      -0.147000
      9 C8           0.7700    -0.1710     5.3450 ca         1 SU2      -0.025000
     10 C9          -0.4320    -0.2860     4.6820 ca         1 SU2      -0.148300
     11 C10         -0.7380     0.7590     2.3710 c3         1 SU2      -0.001100
     12 C1          -0.5570     0.6170     0.8650 ca         1 SU2      -0.110300
     13 C12         -1.3700    -0.2690     0.1340 ca         1 SU2      -0.068500
     14 C13         -1.2030    -0.4030    -1.2550 ca         1 SU2      -0.151000
     15 C14         -0.2240     0.3430    -1.9370 ca         1 SU2       0.286000
     16 C15          0.5880     1.2300    -1.2010 ca         1 SU2      -0.151000
     17 C16          0.4220     1.3680     0.1880 ca         1 SU2      -0.068500
     18 N2           0.1810    -0.3590    -6.2230 n          1 SU2      -0.421800
     19 C11          0.3180    -0.7870    -7.5530 c          1 SU2       0.605900
     20 O3          -0.6430    -0.9970    -8.2860 o          1 SU2      -0.603100
     21 C2B          1.3740    -0.3570    -5.3260 c6         1 SU2       0.092000
     22 C3B          1.2170     0.4660    -4.0160 c6         1 SU2       0.174300
     23 N4          -0.0760     0.1880    -3.3370 nh         1 SU2      -0.785400
     24 C5B         -1.2320     0.4530    -4.2330 c6         1 SU2       0.174300
     25 C6B         -1.1520    -0.3730    -5.5470 c6         1 SU2       0.092000
     26 HN1          2.7520    -0.3430     4.6730 hn         1 SU2       0.171000
     27 H3          -0.6040    -1.3530     2.7520 hc         1 SU2       0.095700
     28 H4          -2.5960    -0.3120     4.8710 ha         1 SU2       0.117000
     29 H5          -2.5180    -0.0070     7.3580 ha         1 SU2       0.117000
     30 H6          -0.3260     0.1910     8.5380 ha         1 SU2       0.115000
     31 H7           1.8200     0.0810     7.2300 ha         1 SU2       0.122000
     32 H101        -0.2710     1.6880     2.7230 hc         1 SU2       0.052700
     33 H102        -1.8070     0.8740     2.5870 hc         1 SU2       0.052700
     34 H2          -2.1320    -0.8570     0.6420 ha         1 SU2       0.109500
     35 H8          -1.8310    -1.0980    -1.8030 ha         1 SU2       0.113000
     36 H9           1.3430     1.8270    -1.7020 ha         1 SU2       0.113000
     37 H12          1.0590     2.0580     0.7370 ha         1 SU2       0.109500
     38 H11          1.3730    -0.9100    -7.8650 h5         1 SU2       0.007200
     39 H2'1         1.5940    -1.3990    -5.0510 h1         1 SU2       0.061200
     40 H2'2         2.2480     0.0200    -5.8760 h1         1 SU2       0.061200
     41 H3'1         2.0630     0.2260    -3.3540 h1         1 SU2       0.047200
     42 H3'2         1.2850     1.5370    -4.2610 h1         1 SU2       0.047200
     43 H5'1        -2.1840     0.2230    -3.7320 h1         1 SU2       0.047200
     44 H5'2        -1.2580     1.5220    -4.4910 h1         1 SU2       0.047200
     45 H6'1        -1.9220    -0.0010    -6.2380 h1         1 SU2       0.061200
     46 H6'2        -1.4060    -1.4160    -5.3140 h1         1 SU2       0.061200
@<TRIPOS>BOND
     1     1     2 1   
     2     1     9 1   
     3     1    26 1   
     4     2     3 2   
     5     2     4 1   
     6     4    10 1   
     7     4    11 1   
     8     4    27 1   
     9     5     6 ar  
    10     5    10 ar  
    11     5    28 1   
    12     6     7 ar  
    13     6    29 1   
    14     7     8 ar  
    15     7    30 1   
    16     8     9 ar  
    17     8    31 1   
    18     9    10 ar  
    19    11    12 1   
    20    11    32 1   
    21    11    33 1   
    22    12    13 ar  
    23    12    17 ar  
    24    13    14 ar  
    25    13    34 1   
    26    14    15 ar  
    27    14    35 1   
    28    15    16 ar  
    29    15    23 1   
    30    16    17 ar  
    31    16    36 1   
    32    17    37 1   
    33    18    19 1   
    34    18    21 1   
    35    18    25 1   
    36    19    20 2   
    37    19    38 1   
    38    21    22 1   
    39    21    39 1   
    40    21    40 1   
    41    22    23 1   
    42    22    41 1   
    43    22    42 1   
    44    23    24 1   
    45    24    25 1   
    46    24    43 1   
    47    24    44 1   
    48    25    45 1   
    49    25    46 1   
@<TRIPOS>SUBSTRUCTURE
     1 SU2         1 TEMP              0 ****  ****    0 ROOT
