@<TRIPOS>MOLECULE
SU2
   46    49     1     0     0
SMALL
bcc


@<TRIPOS>ATOM
      1 N1           1.7720    -0.3910     4.4370 ns         1 SU2      -0.478100
      2 C2           1.3270    -0.5870     3.1630 c          1 SU2       0.707500
      3 O2           2.0260    -0.8430     2.2060 o          1 SU2      -0.591500
      4 C3          -0.1900    -0.4070     3.1800 c5         1 SU2      -0.096400
      5 C4          -1.6610     0.0380     5.3060 ca         1 SU2      -0.074000
      6 C5          -1.6260     0.2580     6.6840 ca         1 SU2      -0.160000
      7 C6          -0.4140     0.2700     7.3610 ca         1 SU2      -0.092000
      8 C7           0.7910     0.0640     6.6910 ca         1 SU2      -0.165000
      9 C8           0.7330    -0.1540     5.3280 ca         1 SU2       0.067600
     10 C9          -0.4750    -0.1700     4.6330 ca         1 SU2      -0.148300
     11 C10         -0.6440     0.7660     2.2870 c3         1 SU2      -0.001100
     12 C1          -0.4660     0.5270     0.8150 ca         1 SU2      -0.110300
     13 C12         -1.3310    -0.3210     0.1230 ca         1 SU2      -0.086500
     14 C13         -1.1850    -0.5560    -1.2310 ca         1 SU2      -0.169000
     15 C14         -0.1660     0.0660    -1.9660 ca         1 SU2       0.147600
     16 C15          0.6960     0.9210    -1.2760 ca         1 SU2      -0.169000
     17 C16          0.5480     1.1330     0.0890 ca         1 SU2      -0.086500
     18 N2           0.1490    -0.2960    -6.1400 n          1 SU2      -0.488800
     19 C11          0.1770     0.2700    -7.3540 c          1 SU2       0.672900
     20 O3          -0.7890     0.4610    -8.0750 o          1 SU2      -0.603100
     21 C2B          1.3360    -0.4490    -5.3300 c6         1 SU2       0.092000
     22 C3B          1.1700     0.2600    -3.9960 c6         1 SU2       0.174300
     23 N4          -0.0310    -0.2070    -3.3330 nh         1 SU2      -0.647000
     24 C5B         -1.2190    -0.0090    -4.1540 c6         1 SU2       0.174300
     25 C6B         -1.0720    -0.7170    -5.4890 c6         1 SU2       0.092000
     26 HN1          2.7450    -0.4480     4.6960 hn         1 SU2       0.337500
     27 H3          -0.6600    -1.3300     2.8240 hc         1 SU2       0.095700
     28 H4          -2.6070     0.0260     4.7780 ha         1 SU2       0.135000
     29 H5          -2.5480     0.4200     7.2260 ha         1 SU2       0.135000
     30 H6          -0.3990     0.4400     8.4300 ha         1 SU2       0.133000
     31 H7           1.7330     0.0750     7.2250 ha         1 SU2       0.140000
     32 H101        -0.1160     1.6720     2.5930 hc         1 SU2       0.052700
     33 H102        -1.7010     0.9400     2.5020 hc         1 SU2       0.052700
     34 H2          -2.1340    -0.8170     0.6560 ha         1 SU2       0.127500
     35 H8          -1.8630    -1.2440    -1.7190 ha         1 SU2       0.131000
     36 H9           1.4910     1.4430    -1.7920 ha         1 SU2       0.131000
     37 H12          1.2390     1.8030     0.5890 ha         1 SU2       0.127500
     38 H11          1.1980     0.5540    -7.6540 h5         1 SU2       0.007200
     39 H2'1         1.5240    -1.5120    -5.1550 h1         1 SU2       0.061200
     40 H2'2         2.1970    -0.0400    -5.8580 h1         1 SU2       0.061200
     41 H3'1         2.0400     0.0270    -3.3810 h1         1 SU2       0.047200
     42 H3'2         1.1590     1.3490    -4.1580 h1         1 SU2       0.047200
     43 H5'1        -2.0960    -0.4090    -3.6500 h1         1 SU2       0.047200
     44 H5'2        -1.4000     1.0620    -4.3280 h1         1 SU2       0.047200
     45 H6'1        -1.9230    -0.4920    -6.1290 h1         1 SU2       0.061200
     46 H6'2        -1.0420    -1.8000    -5.3320 h1         1 SU2       0.061200
@<TRIPOS>BOND
     1     1     2 1   
     2     1     9 1   
     3     1    26 1   
     4     2     3 2   
     5     2     4 1   
     6     4    10 1   
     7     4    11 1   
     8     4    27 1   
     9     5     6 ar  
    10     5    10 ar  
    11     5    28 1   
    12     6     7 ar  
    13     6    29 1   
    14     7     8 ar  
    15     7    30 1   
    16     8     9 ar  
    17     8    31 1   
    18     9    10 ar  
    19    11    12 1   
    20    11    32 1   
    21    11    33 1   
    22    12    13 ar  
    23    12    17 ar  
    24    13    14 ar  
    25    13    34 1   
    26    14    15 ar  
    27    14    35 1   
    28    15    16 ar  
    29    15    23 1   
    30    16    17 ar  
    31    16    36 1   
    32    17    37 1   
    33    18    19 1   
    34    18    21 1   
    35    18    25 1   
    36    19    20 2   
    37    19    38 1   
    38    21    22 1   
    39    21    39 1   
    40    21    40 1   
    41    22    23 1   
    42    22    41 1   
    43    22    42 1   
    44    23    24 1   
    45    24    25 1   
    46    24    43 1   
    47    24    44 1   
    48    25    45 1   
    49    25    46 1   
@<TRIPOS>SUBSTRUCTURE
     1 SU2         1 TEMP              0 ****  ****    0 ROOT
