@<TRIPOS>MOLECULE
SU4
   45    47     1     0     0
SMALL
No Charge or Current Charge


@<TRIPOS>ATOM
      1 O3          -0.6030     1.1670     2.2170 o          1 SU4      -0.550500
      2 S           -0.6900     0.1540     1.1610 sy         1 SU4       1.196600
      3 O2          -0.1220    -1.1890     1.3080 o          1 SU4      -0.550500
      4 C7          -2.4160    -0.0070     0.6740 ca         1 SU4      -0.331500
      5 C12         -2.8620    -1.1830     0.0370 ca         1 SU4       0.030000
      6 C11         -4.2080    -1.3020    -0.3480 ca         1 SU4      -0.204500
      7 C10         -5.1070    -0.2550    -0.0940 ca         1 SU4       0.195100
      8 O4          -6.4120    -0.3650    -0.4660 oh         1 SU4      -0.523100
      9 C9          -4.6660     0.9110     0.5440 ca         1 SU4      -0.204500
     10 C8          -3.3220     1.0400     0.9330 ca         1 SU4       0.030000
     11 N            0.0660     0.8330    -0.2140 n3         1 SU4      -0.762500
     12 C4          -0.5830     0.6790    -1.4950 cx         1 SU4       0.144500
     13 C6          -1.6510     1.6830    -1.8620 cx         1 SU4      -0.129400
     14 C5          -0.3110     1.7310    -2.5470 cx         1 SU4      -0.129400
     15 C3           1.5620     0.8210    -0.2000 c3         1 SU4       0.209800
     16 C2           2.3470    -0.4130    -0.8130 c3         1 SU4       0.223300
     17 C1           2.5680    -0.2350    -2.3400 c3         1 SU4      -0.080100
     18 O1           1.5970    -1.6320    -0.6830 oh         1 SU4      -0.678000
     19 C13          3.6750    -0.5760    -0.0340 ca         1 SU4      -0.112300
     20 C18          3.6610    -1.1570     1.2580 ca         1 SU4      -0.097500
     21 C17          4.8450    -1.2980     2.0010 ca         1 SU4      -0.112500
     22 C16          6.0660    -0.8560     1.4720 ca         1 SU4      -0.106000
     23 C15          6.0990    -0.2660     0.1990 ca         1 SU4      -0.112500
     24 C14          4.9160    -0.1220    -0.5470 ca         1 SU4      -0.097500
     25 H12         -2.1720    -2.0020    -0.1660 ha         1 SU4       0.143500
     26 H8          -2.9910     1.9550     1.4240 ha         1 SU4       0.143500
     27 H11         -4.5440    -2.2100    -0.8420 ha         1 SU4       0.127500
     28 H4          -6.5370    -1.2390    -0.8910 ho         1 SU4       0.473000
     29 H9          -5.3660     1.7200     0.7390 ha         1 SU4       0.127500
     30 HA          -0.7090    -0.3480    -1.8440 h1         1 SU4       0.084700
     31 H31C         1.9250     1.7170    -0.7210 h1         1 SU4       0.067200
     32 H32C         1.9050     0.9570     0.8350 h1         1 SU4       0.067200
     33 H61C        -2.5050     1.3190    -2.4270 hc         1 SU4       0.084450
     34 H62C        -1.8790     2.4720    -1.1500 hc         1 SU4       0.084450
     35 H51C         0.3490     2.5570    -2.2970 hc         1 SU4       0.084450
     36 H52C        -0.2600     1.4050    -3.5830 hc         1 SU4       0.084450
     37 H11C         2.9960     0.7480    -2.5710 hc         1 SU4       0.043700
     38 H12C         3.2440    -1.0070    -2.7260 hc         1 SU4       0.043700
     39 H13C         1.6260    -0.3230    -2.8920 hc         1 SU4       0.043700
     40 H1           0.9590    -1.4820     0.0600 ho         1 SU4       0.477000
     41 H18          2.7270    -1.5010     1.6950 ha         1 SU4       0.116500
     42 H14          4.9850     0.3520    -1.5220 ha         1 SU4       0.116500
     43 H17          4.8140    -1.7500     2.9900 ha         1 SU4       0.113000
     44 H16          6.9830    -0.9650     2.0470 ha         1 SU4       0.113000
     45 H15          7.0440     0.0850    -0.2100 ha         1 SU4       0.113000
@<TRIPOS>BOND
     1     1     2 2   
     2     2     3 2   
     3     2     4 1   
     4     2    11 1   
     5     4     5 ar  
     6     4    10 ar  
     7     5     6 ar  
     8     5    25 1   
     9     6     7 ar  
    10     6    27 1   
    11     7     8 1   
    12     7     9 ar  
    13     8    28 1   
    14     9    10 ar  
    15     9    29 1   
    16    10    26 1   
    17    11    12 1   
    18    11    15 1   
    19    12    13 1   
    20    12    14 1   
    21    12    30 1   
    22    13    14 1   
    23    13    33 1   
    24    13    34 1   
    25    14    35 1   
    26    14    36 1   
    27    15    16 1   
    28    15    31 1   
    29    15    32 1   
    30    16    17 1   
    31    16    18 1   
    32    16    19 1   
    33    17    37 1   
    34    17    38 1   
    35    17    39 1   
    36    18    40 1   
    37    19    20 ar  
    38    19    24 ar  
    39    20    21 ar  
    40    20    41 1   
    41    21    22 ar  
    42    21    43 1   
    43    22    23 ar  
    44    22    44 1   
    45    23    24 ar  
    46    23    45 1   
    47    24    42 1   
@<TRIPOS>SUBSTRUCTURE
     1 SU4         1 TEMP              0 ****  ****    0 ROOT
