@<TRIPOS>MOLECULE
SU4
   45    47     1     0     0
SMALL
bcc


@<TRIPOS>ATOM
      1 O3          -1.4770     2.2350     1.7660 o          1 SU4      -0.621300
      2 S           -1.0300     0.9400     1.2710 sy         1 SU4       1.338200
      3 O2          -0.4370     0.0350     2.2550 o          1 SU4      -0.621300
      4 C7          -2.4050     0.1650     0.4900 ca         1 SU4      -0.331500
      5 C12         -2.2680    -1.1250    -0.0100 ca         1 SU4       0.012000
      6 C11         -3.3420    -1.7380    -0.6240 ca         1 SU4      -0.222500
      7 C10         -4.5620    -1.0670    -0.7400 ca         1 SU4       0.195100
      8 O4          -5.6300    -1.6170    -1.3280 oh         1 SU4      -0.484100
      9 C9          -4.6910     0.2260    -0.2330 ca         1 SU4      -0.222500
     10 C8          -3.6140     0.8400     0.3780 ca         1 SU4       0.012000
     11 N            0.0650     1.1080     0.0510 n3         1 SU4      -0.762500
     12 C4          -0.4100     1.6410    -1.1950 cx         1 SU4       0.144500
     13 C6          -1.0100     3.0150    -1.2700 cx         1 SU4      -0.129400
     14 C5           0.3440     2.7590    -1.8430 cx         1 SU4      -0.129400
     15 C3           1.4530     0.7090     0.2250 c3         1 SU4       0.209800
     16 C2           1.8180    -0.7210    -0.2240 c3         1 SU4       0.200100
     17 C1           1.4840    -0.9670    -1.6940 c3         1 SU4      -0.080100
     18 O1           1.0920    -1.6870     0.5020 oh         1 SU4      -0.615800
     19 C13          3.3200    -0.8750     0.0070 ca         1 SU4      -0.112300
     20 C18          3.8200    -1.7680     0.9510 ca         1 SU4      -0.115500
     21 C17          5.1890    -1.8860     1.1620 ca         1 SU4      -0.130500
     22 C16          6.0820    -1.1130     0.4350 ca         1 SU4      -0.124000
     23 C15          5.5940    -0.2190    -0.5100 ca         1 SU4      -0.130500
     24 C14          4.2270    -0.1030    -0.7190 ca         1 SU4      -0.115500
     25 H12         -1.3300    -1.6590     0.0650 ha         1 SU4       0.161500
     26 H8          -3.7260     1.8460     0.7580 ha         1 SU4       0.161500
     27 H11         -3.2310    -2.7430    -1.0130 ha         1 SU4       0.145500
     28 H4          -5.4230    -2.4990    -1.6590 ho         1 SU4       0.434000
     29 H9          -5.6350     0.7480    -0.3220 ha         1 SU4       0.145500
     30 HA          -0.8420     0.9080    -1.8690 h1         1 SU4       0.084700
     31 H31C         2.0580     1.4220    -0.3350 h1         1 SU4       0.067200
     32 H32C         1.7460     0.8400     1.2690 h1         1 SU4       0.067200
     33 H61C        -1.8490     3.1380    -1.9420 hc         1 SU4       0.084450
     34 H62C        -1.0620     3.6020    -0.3660 hc         1 SU4       0.084450
     35 H51C         1.1900     3.1740    -1.3110 hc         1 SU4       0.084450
     36 H52C         0.4690     2.7130    -2.9170 hc         1 SU4       0.084450
     37 H11C         1.9620    -0.2400    -2.3490 hc         1 SU4       0.043700
     38 H12C         1.8190    -1.9600    -1.9960 hc         1 SU4       0.043700
     39 H13C         0.4080    -0.9150    -1.8570 hc         1 SU4       0.043700
     40 H1           0.8790    -1.3490     1.3810 ho         1 SU4       0.438000
     41 H18          3.1440    -2.3860     1.5250 ha         1 SU4       0.134500
     42 H14          3.8730     0.5980    -1.4660 ha         1 SU4       0.134500
     43 H17          5.5570    -2.5880     1.8990 ha         1 SU4       0.131000
     44 H16          7.1470    -1.2050     0.6010 ha         1 SU4       0.131000
     45 H15          6.2770     0.3910    -1.0870 ha         1 SU4       0.131000
@<TRIPOS>BOND
     1     1     2 2   
     2     2     3 2   
     3     2     4 1   
     4     2    11 1   
     5     4     5 ar  
     6     4    10 ar  
     7     5     6 ar  
     8     5    25 1   
     9     6     7 ar  
    10     6    27 1   
    11     7     8 1   
    12     7     9 ar  
    13     8    28 1   
    14     9    10 ar  
    15     9    29 1   
    16    10    26 1   
    17    11    12 1   
    18    11    15 1   
    19    12    13 1   
    20    12    14 1   
    21    12    30 1   
    22    13    14 1   
    23    13    33 1   
    24    13    34 1   
    25    14    35 1   
    26    14    36 1   
    27    15    16 1   
    28    15    31 1   
    29    15    32 1   
    30    16    17 1   
    31    16    18 1   
    32    16    19 1   
    33    17    37 1   
    34    17    38 1   
    35    17    39 1   
    36    18    40 1   
    37    19    20 ar  
    38    19    24 ar  
    39    20    21 ar  
    40    20    41 1   
    41    21    22 ar  
    42    21    43 1   
    43    22    23 ar  
    44    22    44 1   
    45    23    24 ar  
    46    23    45 1   
    47    24    42 1   
@<TRIPOS>SUBSTRUCTURE
     1 SU4         1 TEMP              0 ****  ****    0 ROOT
