@<TRIPOS>MOLECULE
SU5
   27    29     1     0     0
SMALL
abcg2


@<TRIPOS>ATOM
      1 C1         -31.0470    12.8760   -17.7460 ca         1 SU5      -0.146000
      2 C2         -30.0030    13.7990   -17.9800 ca         1 SU5      -0.075000
      3 C3         -25.3380    13.9510   -10.6250 ca         1 SU5      -0.170000
      4 C7         -29.9690    11.9380   -14.2410 cc         1 SU5      -0.139200
      5 C8         -25.6340    15.2920   -10.8530 ca         1 SU5       0.352900
      6 C9         -27.5040    14.7670   -12.0560 ca         1 SU5       0.356900
      7 C10        -30.1850    12.4440   -15.5510 ca         1 SU5      -0.125800
      8 C11        -27.2910    13.3970   -11.8930 ca         1 SU5      -0.225600
      9 C12        -29.1480    13.3870   -15.8040 ca         1 SU5      -0.026200
     10 C13        -28.8520    12.5730   -13.7320 cd         1 SU5      -0.172300
     11 C14        -28.2430    12.3750   -12.4190 c          1 SU5       0.610900
     12 O17        -28.5060    11.3820   -11.7460 o          1 SU5      -0.512100
     13 C4         -31.1470    12.1990   -16.5490 ca         1 SU5      -0.045000
     14 C5         -26.1870    12.9890   -11.1440 ca         1 SU5      -0.025000
     15 C6         -29.0440    14.0670   -17.0220 ca         1 SU5      -0.136000
     16 N15        -26.7010    15.7010   -11.5430 nb         1 SU5      -0.668000
     17 N16        -28.3680    13.4570   -14.6860 na         1 SU5      -0.212700
     18 H1         -31.7770    12.7000   -18.5260 ha         1 SU5       0.114000
     19 H2         -29.9560    14.3090   -18.9340 ha         1 SU5       0.113000
     20 H4         -30.5660    11.2140   -13.7120 ha         1 SU5       0.219000
     21 H5         -24.9860    16.0690   -10.4600 h4         1 SU5       0.024100
     22 H6         -28.3720    15.1260   -12.5980 h4         1 SU5       0.030100
     23 H7         -31.9470    11.4910   -16.3750 ha         1 SU5       0.118000
     24 H8         -26.0040    11.9350   -10.9860 ha         1 SU5       0.137000
     25 H9         -28.2470    14.7770   -17.2020 ha         1 SU5       0.117000
     26 H10        -27.5090    13.9780   -14.6160 hn         1 SU5       0.356000
     27 H3         -24.4620    13.6770   -10.0530 ha         1 SU5       0.131000
@<TRIPOS>BOND
     1     1     2 ar  
     2     1    13 ar  
     3     1    18 1   
     4     2    15 ar  
     5     2    19 1   
     6     3     5 ar  
     7     3    14 ar  
     8     3    27 1   
     9     4     7 1   
    10     4    10 2   
    11     4    20 1   
    12     5    16 ar  
    13     5    21 1   
    14     6     8 ar  
    15     6    16 ar  
    16     6    22 1   
    17     7     9 ar  
    18     7    13 ar  
    19     8    11 1   
    20     8    14 ar  
    21     9    15 ar  
    22     9    17 1   
    23    10    11 1   
    24    10    17 1   
    25    11    12 2   
    26    13    23 1   
    27    14    24 1   
    28    15    25 1   
    29    17    26 1   
@<TRIPOS>SUBSTRUCTURE
     1 SU5         1 TEMP              0 ****  ****    0 ROOT
