@<TRIPOS>MOLECULE
SU5
   27    29     1     0     0
SMALL
No Charge or Current Charge


@<TRIPOS>ATOM
      1 C1         -31.0000    12.7210   -17.8370 ca         1 SU5      -0.146000
      2 C2         -30.0690    13.7650   -18.0580 ca         1 SU5      -0.075000
      3 C3         -25.2670    13.8370   -10.6230 ca         1 SU5      -0.170000
      4 C7         -29.9250    11.9700   -14.2800 cc         1 SU5      -0.139200
      5 C8         -25.4690    15.2100   -10.8410 ca         1 SU5       0.352900
      6 C9         -27.4610    14.8140   -11.9590 ca         1 SU5       0.356900
      7 C10        -30.1260    12.4530   -15.6110 ca         1 SU5      -0.125800
      8 C11        -27.3290    13.4240   -11.8060 ca         1 SU5      -0.225600
      9 C12        -29.2260    13.4590   -15.8180 ca         1 SU5      -0.026200
     10 C13        -28.8960    12.7260   -13.7180 cd         1 SU5      -0.172300
     11 C14        -28.3850    12.5030   -12.3300 c          1 SU5       0.610900
     12 O17        -28.8070    11.5930   -11.6260 o          1 SU5      -0.512100
     13 C4         -31.0360    12.0490   -16.5970 ca         1 SU5      -0.045000
     14 C5         -26.2140    12.9220   -11.1070 ca         1 SU5      -0.025000
     15 C6         -29.1680    14.1430   -17.0400 ca         1 SU5      -0.136000
     16 N15        -26.5490    15.6980   -11.4940 nb         1 SU5      -0.668000
     17 N16        -28.4430    13.6620   -14.6930 na         1 SU5      -0.212700
     18 H1         -31.6910    12.4360   -18.6270 ha         1 SU5       0.114000
     19 H2         -30.0480    14.2780   -19.0170 ha         1 SU5       0.113000
     20 H4         -30.4660    11.1650   -13.7840 ha         1 SU5       0.219000
     21 H5         -24.7490    15.9410   -10.4760 h4         1 SU5       0.024100
     22 H6         -28.3290    15.2440   -12.4590 h4         1 SU5       0.030100
     23 H7         -31.7450    11.2450   -16.4130 ha         1 SU5       0.118000
     24 H8         -26.0830    11.8520   -10.9490 ha         1 SU5       0.137000
     25 H9         -28.4490    14.9440   -17.2010 ha         1 SU5       0.117000
     26 H10        -27.6760    14.3220   -14.6030 hn         1 SU5       0.356000
     27 H3         -24.3870    13.4960   -10.0860 ha         1 SU5       0.131000
@<TRIPOS>BOND
     1     1     2 ar  
     2     1    13 ar  
     3     1    18 1   
     4     2    15 ar  
     5     2    19 1   
     6     3     5 ar  
     7     3    14 ar  
     8     3    27 1   
     9     4     7 1   
    10     4    10 2   
    11     4    20 1   
    12     5    16 ar  
    13     5    21 1   
    14     6     8 ar  
    15     6    16 ar  
    16     6    22 1   
    17     7     9 ar  
    18     7    13 ar  
    19     8    11 1   
    20     8    14 ar  
    21     9    15 ar  
    22     9    17 1   
    23    10    11 1   
    24    10    17 1   
    25    11    12 2   
    26    13    23 1   
    27    14    24 1   
    28    15    25 1   
    29    17    26 1   
@<TRIPOS>SUBSTRUCTURE
     1 SU5         1 TEMP              0 ****  ****    0 ROOT
