@<TRIPOS>MOLECULE
SU6
   40    42     1     0     0
SMALL
No Charge or Current Charge


@<TRIPOS>ATOM
      1 C1           6.0100     0.9580     0.3630 c          1 SU6       0.716000
      2 N1           0.5530    -1.3100    -0.4780 na         1 SU6      -0.079000
      3 O1           6.8670     0.1140     0.1500 o          1 SU6      -0.741000
      4 C2           4.5670     0.4830     0.5990 c3         1 SU6      -0.203400
      5 N2          -4.0150    -1.7920     0.0040 ns         1 SU6      -0.394100
      6 O2           6.2270     2.1600     0.3520 o          1 SU6      -0.741000
      7 C3           3.8240     0.3790    -0.7530 c3         1 SU6       0.003900
      8 O3          -1.8710    -2.5910    -0.2730 o          1 SU6      -0.600000
      9 C4           2.3910    -0.0820    -0.6040 cc         1 SU6      -0.137300
     10 C5           1.9340    -1.3710    -0.6470 cd         1 SU6      -0.097300
     11 C6           2.6990    -2.6550    -0.8370 c3         1 SU6      -0.034800
     12 C7           1.2770     0.7800    -0.4030 cc         1 SU6      -0.061300
     13 C8           1.3830     2.2840    -0.3060 c3         1 SU6      -0.026800
     14 C9           0.1350     0.0150    -0.3350 cd         1 SU6      -0.253800
     15 C10         -1.2460     0.4880    -0.1560 cf         1 SU6       0.061800
     16 C11         -2.4340    -0.1940    -0.0710 cc         1 SU6      -0.265400
     17 C12         -2.6600    -1.6690    -0.1340 c          1 SU6       0.586200
     18 C13         -3.7550     0.4190     0.1060 ca         1 SU6      -0.059800
     19 C14         -4.6990    -0.5910     0.1470 ca         1 SU6       0.040600
     20 C15         -6.0650    -0.3430     0.3080 ca         1 SU6      -0.143000
     21 C16         -6.4720     1.0020     0.4310 ca         1 SU6      -0.101000
     22 C17         -5.5160     2.0470     0.3900 ca         1 SU6      -0.138000
     23 C18         -4.1410     1.7640     0.2270 ca         1 SU6      -0.079000
     24 H1          -0.0790    -2.1130    -0.4640 hn         1 SU6       0.390000
     25 H3           4.5570    -0.5280     1.0230 hc         1 SU6       0.018200
     26 H4          -4.4750    -2.6930    -0.0010 hn         1 SU6       0.330500
     27 H5           3.8590     1.3470    -1.2670 hc         1 SU6       0.048700
     28 H6           3.5360    -2.7210    -0.1320 hc         1 SU6       0.052033
     29 H7           2.0610    -3.5330    -0.6790 hc         1 SU6       0.052033
     30 H8           3.1100    -2.7190    -1.8520 hc         1 SU6       0.052033
     31 H9           1.2570     2.7460    -1.2920 hc         1 SU6       0.040700
     32 H10          0.6170     2.6960     0.3600 hc         1 SU6       0.040700
     33 H11          2.3520     2.6020     0.0940 hc         1 SU6       0.040700
     34 H12         -1.3540     1.5700    -0.0840 ha         1 SU6       0.178000
     35 H15         -6.7870    -1.1560     0.3370 ha         1 SU6       0.111000
     36 H16         -7.5260     1.2390     0.5580 ha         1 SU6       0.104000
     37 H17         -5.8430     3.0800     0.4860 ha         1 SU6       0.107000
     38 H18         -3.4120     2.5700     0.1960 ha         1 SU6       0.114000
     39 H19          4.0120     1.2170     1.1960 hc         1 SU6       0.018200
     40 H20          4.3650    -0.3200    -1.4030 hc         1 SU6       0.048700
@<TRIPOS>BOND
     1     1     3 1   
     2     1     4 1   
     3     1     6 1   
     4     2    10 1   
     5     2    14 1   
     6     2    24 1   
     7     4     7 1   
     8     4    25 1   
     9     4    39 1   
    10     5    17 1   
    11     5    19 1   
    12     5    26 1   
    13     7     9 1   
    14     7    27 1   
    15     7    40 1   
    16     8    17 2   
    17     9    10 2   
    18     9    12 1   
    19    10    11 1   
    20    11    28 1   
    21    11    29 1   
    22    11    30 1   
    23    12    13 1   
    24    12    14 2   
    25    13    31 1   
    26    13    32 1   
    27    13    33 1   
    28    14    15 1   
    29    15    16 2   
    30    15    34 1   
    31    16    17 1   
    32    16    18 1   
    33    18    19 ar  
    34    18    23 ar  
    35    19    20 ar  
    36    20    21 ar  
    37    20    35 1   
    38    21    22 ar  
    39    21    36 1   
    40    22    23 ar  
    41    22    37 1   
    42    23    38 1   
@<TRIPOS>SUBSTRUCTURE
     1 SU6         1 TEMP              0 ****  ****    0 ROOT
