@<TRIPOS>MOLECULE
SU6
   40    42     1     0     0
SMALL
abcg2


@<TRIPOS>ATOM
      1 C1           6.0200     0.7210     0.4930 c          1 SU6       0.716000
      2 N1           0.5350    -1.2010    -0.5470 na         1 SU6      -0.079000
      3 O1           6.6460     0.5320     1.5570 o          1 SU6      -0.741000
      4 C2           4.5320     0.3280     0.5100 c3         1 SU6      -0.203400
      5 N2          -3.9430    -1.8310     0.0410 ns         1 SU6      -0.394100
      6 O2           6.4830     1.2010    -0.5600 o          1 SU6      -0.741000
      7 C3           3.7970     0.4480    -0.8230 c3         1 SU6       0.003900
      8 O3          -1.7980    -2.5580    -0.2910 o          1 SU6      -0.600000
      9 C4           2.3580     0.0580    -0.7090 cc         1 SU6      -0.137300
     10 C5           1.8600    -1.2480    -0.7360 cd         1 SU6      -0.097300
     11 C6           2.5950    -2.5270    -0.9050 c3         1 SU6      -0.034800
     12 C7           1.2690     0.9080    -0.4880 cc         1 SU6      -0.061300
     13 C8           1.3380     2.3930    -0.3810 c3         1 SU6      -0.026800
     14 C9           0.1200     0.1000    -0.3910 cd         1 SU6      -0.253800
     15 C10         -1.2080     0.5110    -0.1890 cf         1 SU6       0.061800
     16 C11         -2.3820    -0.1850    -0.0800 cc         1 SU6      -0.265400
     17 C12         -2.6020    -1.6380    -0.1320 c          1 SU6       0.586200
     18 C13         -3.6920     0.4110     0.1300 ca         1 SU6      -0.059800
     19 C14         -4.6230    -0.6350     0.2000 ca         1 SU6       0.040600
     20 C15         -5.9720    -0.4120     0.3960 ca         1 SU6      -0.143000
     21 C16         -6.3940     0.9090     0.5240 ca         1 SU6      -0.101000
     22 C17         -5.4870     1.9620     0.4580 ca         1 SU6      -0.138000
     23 C18         -4.1310     1.7200     0.2600 ca         1 SU6      -0.079000
     24 H1          -0.1230    -1.9810    -0.5120 hn         1 SU6       0.390000
     25 H3           4.4460    -0.6970     0.8870 hc         1 SU6       0.018200
     26 H4          -4.3690    -2.7440     0.0580 hn         1 SU6       0.330500
     27 H5           3.8730     1.4740    -1.1900 hc         1 SU6       0.048700
     28 H6           3.0190    -2.8690     0.0410 hc         1 SU6       0.052033
     29 H7           1.9450    -3.3180    -1.2790 hc         1 SU6       0.052033
     30 H8           3.4210    -2.4110    -1.6060 hc         1 SU6       0.052033
     31 H9           1.6430     2.8460    -1.3270 hc         1 SU6       0.040700
     32 H10          0.3850     2.8400    -0.1010 hc         1 SU6       0.040700
     33 H11          2.0700     2.6990     0.3680 hc         1 SU6       0.040700
     34 H12         -1.3120     1.5880    -0.1030 ha         1 SU6       0.178000
     35 H15         -6.6780    -1.2310     0.4470 ha         1 SU6       0.111000
     36 H16         -7.4460     1.1150     0.6780 ha         1 SU6       0.104000
     37 H17         -5.8380     2.9800     0.5610 ha         1 SU6       0.107000
     38 H18         -3.4330     2.5480     0.2090 ha         1 SU6       0.114000
     39 H19          4.0240     0.9450     1.2600 hc         1 SU6       0.018200
     40 H20          4.2950    -0.1730    -1.5720 hc         1 SU6       0.048700
@<TRIPOS>BOND
     1     1     3 1   
     2     1     4 1   
     3     1     6 1   
     4     2    10 1   
     5     2    14 1   
     6     2    24 1   
     7     4     7 1   
     8     4    25 1   
     9     4    39 1   
    10     5    17 1   
    11     5    19 1   
    12     5    26 1   
    13     7     9 1   
    14     7    27 1   
    15     7    40 1   
    16     8    17 2   
    17     9    10 2   
    18     9    12 1   
    19    10    11 1   
    20    11    28 1   
    21    11    29 1   
    22    11    30 1   
    23    12    13 1   
    24    12    14 2   
    25    13    31 1   
    26    13    32 1   
    27    13    33 1   
    28    14    15 1   
    29    15    16 2   
    30    15    34 1   
    31    16    17 1   
    32    16    18 1   
    33    18    19 ar  
    34    18    23 ar  
    35    19    20 ar  
    36    20    21 ar  
    37    20    35 1   
    38    21    22 ar  
    39    21    36 1   
    40    22    23 ar  
    41    22    37 1   
    42    23    38 1   
@<TRIPOS>SUBSTRUCTURE
     1 SU6         1 TEMP              0 ****  ****    0 ROOT
