@<TRIPOS>MOLECULE
SU7
   36    37     1     0     0
SMALL
No Charge or Current Charge


@<TRIPOS>ATOM
      1 N1          43.6490   121.3740    30.1140 n1         1 SU7      -0.441000
      2 C4          50.5460   117.9710    30.5740 ca         1 SU7      -0.108500
      3 C5          51.6350   118.3890    29.7900 ca         1 SU7      -0.108000
      4 C6          49.4380   117.5620    32.8270 c3         1 SU7      -0.029100
      5 C7          48.2520   118.5710    32.8190 c6         1 SU7      -0.054700
      6 C8          48.6690   119.9730    33.3390 c6         1 SU7      -0.092400
      7 C10         45.8270   118.9890    33.3880 c6         1 SU7       0.105000
      8 C13         43.7540   121.0490    32.7150 c3         1 SU7      -0.102300
      9 N           46.1400   120.4520    33.4070 n          1 SU7      -0.412800
     10 C           52.8110   118.8490    30.4070 ca         1 SU7      -0.109000
     11 O           45.3730   122.6150    33.5030 o          1 SU7      -0.584100
     12 C1          52.8960   118.8900    31.8090 ca         1 SU7      -0.108000
     13 C11         47.0410   118.0600    33.6240 c6         1 SU7      -0.092400
     14 C12         45.1310   121.4390    33.2580 c          1 SU7       0.608100
     15 C14         43.7070   121.2420    31.2700 c1         1 SU7       0.311900
     16 C2          51.8070   118.4720    32.5930 ca         1 SU7      -0.108500
     17 C3          50.6250   118.0100    31.9800 ca         1 SU7      -0.080300
     18 C9          47.4970   120.8210    33.9100 c6         1 SU7       0.105000
     19 H1          49.6390   117.6170    30.0890 ha         1 SU7       0.110000
     20 H2          51.5680   118.3570    28.7050 ha         1 SU7       0.113000
     21 H3          49.7610   117.3820    33.8600 hc         1 SU7       0.049200
     22 H4          49.0900   116.5890    32.4590 hc         1 SU7       0.049200
     23 H5          47.9390   118.6700    31.7690 hc         1 SU7       0.053700
     24 H6          49.4380   119.8810    34.1180 hc         1 SU7       0.054450
     25 H7          49.1440   120.5250    32.5170 hc         1 SU7       0.054450
     26 H8          45.0570   118.7680    34.1410 h1         1 SU7       0.050700
     27 H9          45.4030   118.7440    32.4030 h1         1 SU7       0.050700
     28 H10         43.5090   120.0020    32.9080 hc         1 SU7       0.084700
     29 H11         42.9950   121.6990    33.1600 hc         1 SU7       0.084700
     30 H12         53.6540   119.1730    29.8010 ha         1 SU7       0.114000
     31 H13         53.8050   119.2460    32.2880 ha         1 SU7       0.113000
     32 H14         47.2870   118.0270    34.6950 hc         1 SU7       0.054450
     33 H15         46.7800   117.0350    33.3290 hc         1 SU7       0.054450
     34 H16         51.8820   118.5100    33.6780 ha         1 SU7       0.110000
     35 H17         47.4850   120.7020    35.0030 h1         1 SU7       0.050700
     36 H18         47.7100   121.8810    33.7150 h1         1 SU7       0.050700
@<TRIPOS>BOND
     1     1    15 3   
     2     2     3 ar  
     3     2    17 ar  
     4     2    19 1   
     5     3    10 ar  
     6     3    20 1   
     7     4     5 1   
     8     4    17 1   
     9     4    21 1   
    10     4    22 1   
    11     5     6 1   
    12     5    13 1   
    13     5    23 1   
    14     6    18 1   
    15     6    24 1   
    16     6    25 1   
    17     7     9 1   
    18     7    13 1   
    19     7    26 1   
    20     7    27 1   
    21     8    14 1   
    22     8    15 1   
    23     8    28 1   
    24     8    29 1   
    25     9    14 1   
    26     9    18 1   
    27    10    12 ar  
    28    10    30 1   
    29    11    14 2   
    30    12    16 ar  
    31    12    31 1   
    32    13    32 1   
    33    13    33 1   
    34    16    17 ar  
    35    16    34 1   
    36    18    35 1   
    37    18    36 1   
@<TRIPOS>SUBSTRUCTURE
     1 SU7         1 TEMP              0 ****  ****    0 ROOT
