@<TRIPOS>MOLECULE
SU7
   36    37     1     0     0
SMALL
bcc


@<TRIPOS>ATOM
      1 N1          42.1890   122.9750    33.6520 n1         1 SU7      -0.351800
      2 C4          51.0630   117.2440    31.2860 ca         1 SU7      -0.126500
      3 C5          52.2710   117.3670    30.6150 ca         1 SU7      -0.126000
      4 C6          49.4240   117.9570    33.0580 c3         1 SU7      -0.029100
      5 C7          48.2370   118.4910    32.2430 c6         1 SU7      -0.054700
      6 C8          48.3090   120.0080    32.0170 c6         1 SU7      -0.092400
      7 C10         45.7970   119.0890    32.6130 c6         1 SU7       0.105000
      8 C13         43.7710   120.9540    33.2360 c3         1 SU7      -0.102300
      9 N           46.1420   120.4400    33.0550 n          1 SU7      -0.479800
     10 C           53.1890   118.3380    31.0010 ca         1 SU7      -0.127000
     11 O           45.5140   122.4900    33.7760 o          1 SU7      -0.584100
     12 C1          52.8860   119.1790    32.0620 ca         1 SU7      -0.126000
     13 C11         46.9260   118.1310    32.9530 c6         1 SU7      -0.092400
     14 C12         45.2350   121.3680    33.3820 c          1 SU7       0.675100
     15 C14         42.8990   122.0880    33.4810 c1         1 SU7       0.222700
     16 C2          51.6740   119.0500    32.7300 ca         1 SU7      -0.126500
     17 C3          50.7450   118.0840    32.3530 ca         1 SU7      -0.080300
     18 C9          47.5630   120.7830    33.0890 c6         1 SU7       0.105000
     19 H1          50.3580   116.4800    30.9770 ha         1 SU7       0.128000
     20 H2          52.4980   116.7030    29.7910 ha         1 SU7       0.131000
     21 H3          49.4640   118.4830    34.0170 hc         1 SU7       0.049200
     22 H4          49.2350   116.9050    33.2930 hc         1 SU7       0.049200
     23 H5          48.2480   117.9980    31.2670 hc         1 SU7       0.053700
     24 H6          49.3440   120.3520    31.9910 hc         1 SU7       0.054450
     25 H7          47.8850   120.2660    31.0430 hc         1 SU7       0.054450
     26 H8          44.8910   118.7540    33.1140 h1         1 SU7       0.050700
     27 H9          45.5970   119.0760    31.5360 h1         1 SU7       0.050700
     28 H10         43.5580   120.5610    32.2390 hc         1 SU7       0.084700
     29 H11         43.5160   120.1630    33.9460 hc         1 SU7       0.084700
     30 H12         54.1330   118.4330    30.4810 ha         1 SU7       0.132000
     31 H13         53.5950   119.9360    32.3750 ha         1 SU7       0.131000
     32 H14         47.0710   118.1400    34.0380 hc         1 SU7       0.054450
     33 H15         46.6180   117.1170    32.6930 hc         1 SU7       0.054450
     34 H16         51.4510   119.7090    33.5620 ha         1 SU7       0.128000
     35 H17         47.9770   120.5720    34.0810 h1         1 SU7       0.050700
     36 H18         47.6710   121.8530    32.9210 h1         1 SU7       0.050700
@<TRIPOS>BOND
     1     1    15 3   
     2     2     3 ar  
     3     2    17 ar  
     4     2    19 1   
     5     3    10 ar  
     6     3    20 1   
     7     4     5 1   
     8     4    17 1   
     9     4    21 1   
    10     4    22 1   
    11     5     6 1   
    12     5    13 1   
    13     5    23 1   
    14     6    18 1   
    15     6    24 1   
    16     6    25 1   
    17     7     9 1   
    18     7    13 1   
    19     7    26 1   
    20     7    27 1   
    21     8    14 1   
    22     8    15 1   
    23     8    28 1   
    24     8    29 1   
    25     9    14 1   
    26     9    18 1   
    27    10    12 ar  
    28    10    30 1   
    29    11    14 2   
    30    12    16 ar  
    31    12    31 1   
    32    13    32 1   
    33    13    33 1   
    34    16    17 ar  
    35    16    34 1   
    36    18    35 1   
    37    18    36 1   
@<TRIPOS>SUBSTRUCTURE
     1 SU7         1 TEMP              0 ****  ****    0 ROOT
