@<TRIPOS>MOLECULE
SU8
   24    23     1     0     0
SMALL
No Charge or Current Charge


@<TRIPOS>ATOM
      1 CAJ          0.3630    -1.2190    -0.3510 c          1 SU8       0.745000
      2 CAK          0.2700     0.2530     0.1430 c3         1 SU8      -0.159700
      3 CAL          1.5140     1.0950    -0.2860 c3         1 SU8      -0.162400
      4 OAM          0.3370    -1.4460    -1.5540 o          1 SU8      -0.766500
      5 CAN          2.8050     0.5510     0.3730 c          1 SU8       0.725000
      6 OAO          3.4720    -0.2700    -0.2370 o          1 SU8      -0.765500
      7 OAP          3.1010     0.9570     1.4880 o          1 SU8      -0.765500
      8 CAQ         -1.0600     0.9320    -0.2930 c3         1 SU8      -0.048400
      9 CAR         -2.3340     0.2070     0.2040 c3         1 SU8      -0.074400
     10 CAS         -3.6370     0.9340    -0.1960 c3         1 SU8      -0.078400
     11 CAT         -4.9060     0.2140     0.2970 c3         1 SU8      -0.082100
     12 OXT          0.4140    -2.1060     0.4900 o          1 SU8      -0.766500
     13 HAK          0.2700     0.2310     1.2410 hc         1 SU8       0.032700
     14 HAL          1.5740     1.0310    -1.3800 hc         1 SU8      -0.004800
     15 HALA         1.3160     2.1110     0.0780 hc         1 SU8      -0.004800
     16 HAQ         -1.0760     1.9600     0.0900 hc         1 SU8       0.001700
     17 HAQA        -1.0910     1.0050    -1.3870 hc         1 SU8       0.001700
     18 HAR         -2.3580    -0.8120    -0.2010 hc         1 SU8       0.047700
     19 HARA        -2.2940     0.1170     1.2960 hc         1 SU8       0.047700
     20 HAS         -3.6250     1.9520     0.2100 hc         1 SU8       0.018700
     21 HASA        -3.6820     1.0250    -1.2890 hc         1 SU8       0.018700
     22 HAT         -4.9660    -0.7980    -0.1220 hc         1 SU8       0.013033
     23 HATA        -4.9080     0.1380     1.3910 hc         1 SU8       0.013033
     24 HATB        -5.8020     0.7660    -0.0100 hc         1 SU8       0.013033
@<TRIPOS>BOND
     1     1     2 1   
     2     1     4 1   
     3     1    12 1   
     4     2     3 1   
     5     2     8 1   
     6     2    13 1   
     7     3     5 1   
     8     3    14 1   
     9     3    15 1   
    10     5     6 1   
    11     5     7 1   
    12     8     9 1   
    13     8    16 1   
    14     8    17 1   
    15     9    10 1   
    16     9    18 1   
    17     9    19 1   
    18    10    11 1   
    19    10    20 1   
    20    10    21 1   
    21    11    22 1   
    22    11    23 1   
    23    11    24 1   
@<TRIPOS>SUBSTRUCTURE
     1 SU8         1 TEMP              0 ****  ****    0 ROOT
