@<TRIPOS>MOLECULE
SU8
   24    23     1     0     0
SMALL
abcg2


@<TRIPOS>ATOM
      1 CAJ          0.3380    -1.2530    -0.1040 c          1 SU8       0.745000
      2 CAK          0.2500     0.2420     0.2380 c3         1 SU8      -0.159700
      3 CAL          1.4310     1.0240    -0.3160 c3         1 SU8      -0.162400
      4 OAM          0.7150    -1.5430    -1.2610 o          1 SU8      -0.766500
      5 CAN          2.8180     0.5650     0.1520 c          1 SU8       0.725000
      6 OAO          3.7970     1.0650    -0.4460 o          1 SU8      -0.765500
      7 OAP          2.8770    -0.2460     1.0990 o          1 SU8      -0.765500
      8 CAQ         -1.0590     0.8230    -0.3110 c3         1 SU8      -0.048400
      9 CAR         -2.3330     0.2280     0.2750 c3         1 SU8      -0.074400
     10 CAS         -3.5940     0.9010    -0.2530 c3         1 SU8      -0.078400
     11 CAT         -4.8730     0.3140     0.3270 c3         1 SU8      -0.082100
     12 OXT         -0.0240    -2.0740     0.7670 o          1 SU8      -0.766500
     13 HAK          0.2320     0.3480     1.3290 hc         1 SU8       0.032700
     14 HAL          1.4050     1.0010    -1.4090 hc         1 SU8      -0.004800
     15 HALA         1.3210     2.0830    -0.0490 hc         1 SU8      -0.004800
     16 HAQ         -1.0650     1.9050    -0.1300 hc         1 SU8       0.001700
     17 HAQA        -1.0710     0.7070    -1.4010 hc         1 SU8       0.001700
     18 HAR         -2.3820    -0.8440     0.0630 hc         1 SU8       0.047700
     19 HARA        -2.3060     0.3160     1.3670 hc         1 SU8       0.047700
     20 HAS         -3.5500     1.9730    -0.0350 hc         1 SU8       0.018700
     21 HASA        -3.6160     0.8190    -1.3450 hc         1 SU8       0.018700
     22 HAT         -4.9580    -0.7500     0.0970 hc         1 SU8       0.013033
     23 HATA        -4.8970     0.4160     1.4130 hc         1 SU8       0.013033
     24 HATB        -5.7590     0.8090    -0.0710 hc         1 SU8       0.013033
@<TRIPOS>BOND
     1     1     2 1   
     2     1     4 1   
     3     1    12 1   
     4     2     3 1   
     5     2     8 1   
     6     2    13 1   
     7     3     5 1   
     8     3    14 1   
     9     3    15 1   
    10     5     6 1   
    11     5     7 1   
    12     8     9 1   
    13     8    16 1   
    14     8    17 1   
    15     9    10 1   
    16     9    18 1   
    17     9    19 1   
    18    10    11 1   
    19    10    20 1   
    20    10    21 1   
    21    11    22 1   
    22    11    23 1   
    23    11    24 1   
@<TRIPOS>SUBSTRUCTURE
     1 SU8         1 TEMP              0 ****  ****    0 ROOT
