@<TRIPOS>MOLECULE
SU9
   29    31     1     0     0
SMALL
abcg2


@<TRIPOS>ATOM
      1 N5          -0.1570    -0.1200    -3.6560 na         1 SU9      -0.265500
      2 C4           0.3840    -0.1270    -4.8760 cc         1 SU9       0.416400
      3 N3           1.7020    -0.0570    -4.8350 nd         1 SU9      -0.686000
      4 C2           2.0130    -0.0040    -3.5240 cd         1 SU9       0.285900
      5 C1           0.8660    -0.0410    -2.7470 cc         1 SU9      -0.244800
      6 C6           0.7770    -0.0130    -1.3280 ce         1 SU9       0.017800
      7 C9          -0.2880    -0.0540    -0.4930 cd         1 SU9      -0.184400
      8 C8          -1.7310    -0.1370    -0.8400 c          1 SU9       0.584200
      9 O10         -2.2630    -0.1840    -1.9440 o          1 SU9      -0.586000
     10 N7          -2.4040    -0.1520     0.3390 ns         1 SU9      -0.387100
     11 C5          -1.5460    -0.0870     1.4320 ca         1 SU9       0.016600
     12 C13         -1.8320    -0.0810     2.7780 ca         1 SU9      -0.099000
     13 C11         -0.7690    -0.0110     3.6810 ca         1 SU9      -0.168000
     14 C10          0.5480     0.0510     3.2280 ca         1 SU9       0.120100
     15 O11          1.6260     0.1180     4.0390 os         1 SU9      -0.342100
     16 C12          1.4210     0.1030     5.4360 c3         1 SU9       0.148900
     17 C3           0.8220     0.0450     1.8560 ca         1 SU9      -0.096000
     18 C7          -0.2290    -0.0240     0.9630 ca         1 SU9      -0.057800
     19 H5          -1.1400    -0.1620    -3.3860 hn         1 SU9       0.403000
     20 H4          -0.2130    -0.1830    -5.7730 h5         1 SU9       0.059100
     21 H2           3.0320     0.0580    -3.1730 h4         1 SU9       0.037100
     22 H6           1.7520     0.0510    -0.8560 ha         1 SU9       0.189000
     23 HN7         -3.4090    -0.2000     0.4000 hn         1 SU9       0.341500
     24 H7          -2.8500    -0.1290     3.1410 ha         1 SU9       0.121000
     25 H1          -0.9950    -0.0060     4.7380 ha         1 SU9       0.120000
     26 H121         2.4070     0.1450     5.8940 h1         1 SU9       0.041367
     27 H122         0.8400     0.9650     5.7760 h1         1 SU9       0.041367
     28 H123         0.9190    -0.8110     5.7660 h1         1 SU9       0.041367
     29 H3           1.8510     0.0920     1.5190 ha         1 SU9       0.132000
@<TRIPOS>BOND
     1     1     2 1   
     2     1     5 1   
     3     1    19 1   
     4     2     3 2   
     5     2    20 1   
     6     3     4 1   
     7     4     5 2   
     8     4    21 1   
     9     5     6 1   
    10     6     7 2   
    11     6    22 1   
    12     7     8 1   
    13     7    18 1   
    14     8     9 2   
    15     8    10 1   
    16    10    11 1   
    17    10    23 1   
    18    11    12 ar  
    19    11    18 ar  
    20    12    13 ar  
    21    12    24 1   
    22    13    14 ar  
    23    13    25 1   
    24    14    15 1   
    25    14    17 ar  
    26    15    16 1   
    27    16    26 1   
    28    16    27 1   
    29    16    28 1   
    30    17    18 ar  
    31    17    29 1   
@<TRIPOS>SUBSTRUCTURE
     1 SU9         1 TEMP              0 ****  ****    0 ROOT
