@<TRIPOS>MOLECULE
SU9
   29    31     1     0     0
SMALL
No Charge or Current Charge


@<TRIPOS>ATOM
      1 N5          -0.1230    -0.1110    -3.7080 na         1 SU9      -0.265500
      2 C4           0.4080    -0.1070    -4.9710 cc         1 SU9       0.416400
      3 N3           1.7310    -0.0430    -4.9120 nd         1 SU9      -0.686000
      4 C2           2.0490    -0.0050    -3.5670 cd         1 SU9       0.285900
      5 C1           0.9100    -0.0470    -2.7980 cc         1 SU9      -0.244800
      6 C6           0.7650    -0.0290    -1.3440 ce         1 SU9       0.017800
      7 C9          -0.3320    -0.0670    -0.5060 cd         1 SU9      -0.184400
      8 C8          -1.7840    -0.1430    -0.8670 c          1 SU9       0.584200
      9 O10         -2.3210    -0.1870    -1.9640 o          1 SU9      -0.586000
     10 N7          -2.4190    -0.1530     0.3450 ns         1 SU9      -0.387100
     11 C5          -1.5760    -0.0940     1.4490 ca         1 SU9       0.016600
     12 C13         -1.8760    -0.0850     2.8140 ca         1 SU9      -0.099000
     13 C11         -0.7950    -0.0180     3.7200 ca         1 SU9      -0.168000
     14 C10          0.5460     0.0380     3.2410 ca         1 SU9       0.120100
     15 O11          1.6300     0.1050     4.0930 os         1 SU9      -0.342100
     16 C12          1.4840     0.1220     5.5240 c3         1 SU9       0.148900
     17 C3           0.8060     0.0270     1.8530 ca         1 SU9      -0.096000
     18 C7          -0.2820    -0.0400     0.9680 ca         1 SU9      -0.057800
     19 H5          -1.1160    -0.1550    -3.4880 hn         1 SU9       0.403000
     20 H4          -0.2030    -0.1520    -5.8660 h5         1 SU9       0.059100
     21 H2           3.0770     0.0490    -3.2280 h4         1 SU9       0.037100
     22 H6           1.7220     0.0250    -0.8220 ha         1 SU9       0.189000
     23 HN7         -3.4280    -0.1990     0.4190 hn         1 SU9       0.341500
     24 H7          -2.9040    -0.1280     3.1650 ha         1 SU9       0.121000
     25 H1          -1.0130    -0.0100     4.7840 ha         1 SU9       0.120000
     26 H121         2.4680     0.1770     6.0060 h1         1 SU9       0.041367
     27 H122         0.8990     0.9930     5.8460 h1         1 SU9       0.041367
     28 H123         0.9840    -0.7890     5.8770 h1         1 SU9       0.041367
     29 H3           1.8290     0.0700     1.4900 ha         1 SU9       0.132000
@<TRIPOS>BOND
     1     1     2 1   
     2     1     5 1   
     3     1    19 1   
     4     2     3 2   
     5     2    20 1   
     6     3     4 1   
     7     4     5 2   
     8     4    21 1   
     9     5     6 1   
    10     6     7 2   
    11     6    22 1   
    12     7     8 1   
    13     7    18 1   
    14     8     9 2   
    15     8    10 1   
    16    10    11 1   
    17    10    23 1   
    18    11    12 ar  
    19    11    18 ar  
    20    12    13 ar  
    21    12    24 1   
    22    13    14 ar  
    23    13    25 1   
    24    14    15 1   
    25    14    17 ar  
    26    15    16 1   
    27    16    26 1   
    28    16    27 1   
    29    16    28 1   
    30    17    18 ar  
    31    17    29 1   
@<TRIPOS>SUBSTRUCTURE
     1 SU9         1 TEMP              0 ****  ****    0 ROOT
