@<TRIPOS>MOLECULE
SUA
   35    36     1     0     0
SMALL
bcc


@<TRIPOS>ATOM
      1 S1          -6.1070     0.1460     0.2130 sy         1 SUA       1.273200
      2 O1          -6.3450     1.5620     0.4440 o          1 SUA      -0.613800
      3 O2          -6.6090    -0.8220     1.1750 o          1 SUA      -0.613800
      4 N1          -6.6540    -0.1470    -1.3240 n8         1 SUA      -0.888700
      5 C1          -2.2140     0.6580    -0.6480 ca         1 SUA      -0.162000
      6 C2          -3.5740     0.8610    -0.5140 ca         1 SUA      -0.009000
      7 C3          -4.3740    -0.1380     0.0240 ca         1 SUA      -0.282500
      8 C4          -3.8270    -1.3470     0.4230 ca         1 SUA      -0.009000
      9 C5          -2.4650    -1.5480     0.2890 ca         1 SUA      -0.162000
     10 C6          -1.6500    -0.5480    -0.2360 ca         1 SUA       0.117600
     11 N2          -0.2890    -0.8370    -0.3760 ns         1 SUA      -0.414100
     12 C7           0.7760    -0.0430    -0.1450 cs         1 SUA       0.626500
     13 S2           0.7380     1.5300     0.3500 s          1 SUA      -0.590400
     14 O3           1.8780    -0.7400    -0.3560 os         1 SUA      -0.402900
     15 C8           3.1560    -0.1520    -0.1090 c3         1 SUA       0.158400
     16 C9           4.2040    -1.2050    -0.4270 c3         1 SUA      -0.015100
     17 C10          5.5720    -0.6920    -0.0940 cc         1 SUA      -0.113300
     18 C11          6.0950    -0.6280     1.2300 cc         1 SUA      -0.145000
     19 C12          7.3430    -0.0910     1.2820 cd         1 SUA      -0.118100
     20 S3           7.9030     0.3480    -0.2730 ss         1 SUA      -0.063800
     21 C13          6.4540    -0.1910    -1.0040 cd         1 SUA      -0.114100
     22 HN11        -6.7100    -1.1360    -1.5390 hn         1 SUA       0.415300
     23 HN12        -7.5580     0.2860    -1.4790 hn         1 SUA       0.415300
     24 H21         -4.0000     1.7990    -0.8430 ha         1 SUA       0.159500
     25 H41         -4.4370    -2.1290     0.8510 ha         1 SUA       0.159500
     26 H51         -2.0360    -2.4850     0.6170 ha         1 SUA       0.155000
     27 HN21        -0.0680    -1.8090    -0.5390 hn         1 SUA       0.327500
     28 H81          3.2860     0.7320    -0.7370 h1         1 SUA       0.071200
     29 H82          3.2170     0.1670     0.9330 h1         1 SUA       0.071200
     30 H91          3.9940    -2.1120     0.1470 hc         1 SUA       0.060700
     31 H92          4.1470    -1.4740    -1.4830 hc         1 SUA       0.060700
     32 H111         5.5630    -0.9760     2.1050 ha         1 SUA       0.153000
     33 H121         7.9610     0.0640     2.1520 h4         1 SUA       0.171000
     34 H131         6.3210    -0.1160    -2.0730 h4         1 SUA       0.169000
     35 H11         -1.6020     1.4350    -1.0790 ha         1 SUA       0.155000
@<TRIPOS>BOND
     1     1     2 2   
     2     1     3 2   
     3     1     4 1   
     4     1     7 1   
     5     4    22 1   
     6     4    23 1   
     7     5     6 ar  
     8     5    10 ar  
     9     5    35 1   
    10     6     7 ar  
    11     6    24 1   
    12     7     8 ar  
    13     8     9 ar  
    14     8    25 1   
    15     9    10 ar  
    16     9    26 1   
    17    10    11 1   
    18    11    12 1   
    19    11    27 1   
    20    12    13 2   
    21    12    14 1   
    22    14    15 1   
    23    15    16 1   
    24    15    28 1   
    25    15    29 1   
    26    16    17 1   
    27    16    30 1   
    28    16    31 1   
    29    17    18 1   
    30    17    21 2   
    31    18    19 2   
    32    18    32 1   
    33    19    20 1   
    34    19    33 1   
    35    20    21 1   
    36    21    34 1   
@<TRIPOS>SUBSTRUCTURE
     1 SUA         1 TEMP              0 ****  ****    0 ROOT
