@<TRIPOS>MOLECULE
SUA
   35    36     1     0     0
SMALL
No Charge or Current Charge


@<TRIPOS>ATOM
      1 S1          -6.2750    -0.0130    -0.0320 sy         1 SUA       1.131600
      2 O1          -6.6570     1.3880     0.1300 o          1 SUA      -0.543000
      3 O2          -6.9100    -1.0880     0.7260 o          1 SUA      -0.543000
      4 N1          -6.6780    -0.3430    -1.5770 n8         1 SUA      -0.999100
      5 C1          -2.2670     0.7630    -0.3250 ca         1 SUA      -0.144000
      6 C2          -3.6650     0.9090    -0.3240 ca         1 SUA       0.009000
      7 C3          -4.4900    -0.1960    -0.0340 ca         1 SUA      -0.282500
      8 C4          -3.9070    -1.4480     0.2420 ca         1 SUA       0.009000
      9 C5          -2.5080    -1.5850     0.2380 ca         1 SUA      -0.144000
     10 C6          -1.6770    -0.4830    -0.0310 ca         1 SUA       0.117600
     11 N2          -0.2770    -0.6880    -0.0330 ns         1 SUA      -0.347100
     12 C7           0.8050     0.1270     0.1280 cs         1 SUA       0.559500
     13 S2           0.7960     1.7540     0.5320 s          1 SUA      -0.590400
     14 O3           1.9050    -0.6320    -0.0660 os         1 SUA      -0.426100
     15 C8           3.2250    -0.0740     0.0470 c3         1 SUA       0.181600
     16 C9           4.2370    -1.2000    -0.2360 c3         1 SUA      -0.015100
     17 C10          5.6660    -0.7320    -0.1520 cc         1 SUA      -0.113300
     18 C11          6.3050    -0.5100     1.0970 cc         1 SUA      -0.127000
     19 C12          7.6030    -0.0850     1.0010 cd         1 SUA      -0.245000
     20 S3           8.1060     0.0600    -0.6890 ss         1 SUA       0.226000
     21 C13          6.4980    -0.4730    -1.2120 cd         1 SUA      -0.241000
     22 HN11        -7.3940    -1.0520    -1.4330 hn         1 SUA       0.470500
     23 HN12        -7.2340     0.4780    -1.8020 hn         1 SUA       0.470500
     24 H21         -4.1010     1.8800    -0.5550 ha         1 SUA       0.141500
     25 H41         -4.5300    -2.3150     0.4580 ha         1 SUA       0.141500
     26 H51         -2.0700    -2.5570     0.4530 ha         1 SUA       0.137000
     27 HN21        -0.0070    -1.6460    -0.2110 hn         1 SUA       0.327500
     28 H81          3.3710     0.7370    -0.6790 h1         1 SUA       0.071200
     29 H82          3.3960     0.3270     1.0540 h1         1 SUA       0.071200
     30 H91          4.0720    -2.0160     0.4780 hc         1 SUA       0.060700
     31 H92          4.0400    -1.6120    -1.2330 hc         1 SUA       0.060700
     32 H111         5.7940    -0.6670     2.0430 ha         1 SUA       0.135000
     33 H121         8.2970     0.1500     1.8000 h4         1 SUA       0.153000
     34 H131         6.2790    -0.5580    -2.2700 h4         1 SUA       0.151000
     35 H11         -1.6570     1.6230    -0.5770 ha         1 SUA       0.137000
@<TRIPOS>BOND
     1     1     2 2   
     2     1     3 2   
     3     1     4 1   
     4     1     7 1   
     5     4    22 1   
     6     4    23 1   
     7     5     6 ar  
     8     5    10 ar  
     9     5    35 1   
    10     6     7 ar  
    11     6    24 1   
    12     7     8 ar  
    13     8     9 ar  
    14     8    25 1   
    15     9    10 ar  
    16     9    26 1   
    17    10    11 1   
    18    11    12 1   
    19    11    27 1   
    20    12    13 2   
    21    12    14 1   
    22    14    15 1   
    23    15    16 1   
    24    15    28 1   
    25    15    29 1   
    26    16    17 1   
    27    16    30 1   
    28    16    31 1   
    29    17    18 1   
    30    17    21 2   
    31    18    19 2   
    32    18    32 1   
    33    19    20 1   
    34    19    33 1   
    35    20    21 1   
    36    21    34 1   
@<TRIPOS>SUBSTRUCTURE
     1 SUA         1 TEMP              0 ****  ****    0 ROOT
