@<TRIPOS>MOLECULE
SUB
   60    62     1     0     0
SMALL
abcg2


@<TRIPOS>ATOM
      1 C1          -0.6380     1.1350     0.8810 c          1 SUB       0.616100
      2 N1          -1.6840     0.3470     1.1610 ns         1 SUB      -0.463900
      3 C2          -2.9620     0.5370     0.5390 c3         1 SUB       0.062700
      4 C3          -5.6670     3.0080     1.0510 c3         1 SUB       0.167600
      5 C4          -3.7580    -0.7800     0.5470 c3         1 SUB      -0.036100
      6 C5          -3.0350    -1.8540    -0.2180 ca         1 SUB      -0.087300
      7 C6          -2.2310    -2.7830     0.4350 ca         1 SUB      -0.103000
      8 C7          -1.5020    -3.7210    -0.2830 ca         1 SUB      -0.102000
      9 C8          -1.5820    -3.7510    -1.6670 ca         1 SUB      -0.097000
     10 C9          -2.3970    -2.8420    -2.3270 ca         1 SUB      -0.102000
     11 C10         -3.1140    -1.8980    -1.6070 ca         1 SUB      -0.103000
     12 C11         -3.7420     1.6390     1.2430 c          1 SUB       0.583100
     13 C12         -6.7990     3.1910     0.0700 c3         1 SUB      -0.097100
     14 C13          2.2570    -1.1780     1.7740 c6         1 SUB       0.198800
     15 O3          -0.7280     2.1770     0.2560 o          1 SUB      -0.587100
     16 C14          3.4880    -0.2950     1.9050 c6         1 SUB       0.018600
     17 S1           3.1010     1.3210     2.6300 ss         1 SUB      -0.416000
     18 C15          1.7140     1.7870     1.5580 c6         1 SUB       0.042600
     19 C16          0.6790     0.6730     1.5120 c6         1 SUB       0.129500
     20 N2           1.1890    -0.5870     0.9620 n3         1 SUB      -0.741500
     21 S2           1.1710    -0.9220    -0.6670 sy         1 SUB       1.164600
     22 C17          2.4440     0.0170    -1.4690 ca         1 SUB      -0.311500
     23 C18          3.7060    -0.5390    -1.6440 ca         1 SUB      -0.011000
     24 C19          4.6940     0.2080    -2.2600 ca         1 SUB      -0.134500
     25 C20          4.4420     1.5030    -2.7170 ca         1 SUB      -0.016300
     26 C21          3.1660     2.0320    -2.5380 ca         1 SUB      -0.134500
     27 C22          2.1640     1.2980    -1.9230 ca         1 SUB      -0.011000
     28 O4           1.5370    -2.3220    -0.7890 o          1 SUB      -0.530500
     29 O5          -0.0960    -0.4440    -1.1820 o          1 SUB      -0.530500
     30 C23          5.5220     2.2870    -3.3970 c3         1 SUB      -0.058800
     31 HN1         -1.5170    -0.5110     1.6630 hn         1 SUB       0.328500
     32 H2          -2.8160     0.8410    -0.5020 h1         1 SUB       0.108700
     33 H31         -5.1180     3.9400     1.1960 h1         1 SUB       0.048700
     34 H32         -6.0420     2.6820     2.0230 h1         1 SUB       0.048700
     35 H41         -3.9330    -1.0940     1.5790 hc         1 SUB       0.062700
     36 H42         -4.7370    -0.5940     0.1030 hc         1 SUB       0.062700
     37 H6          -2.1760    -2.7830     1.5180 ha         1 SUB       0.106500
     38 H7          -0.8770    -4.4310     0.2420 ha         1 SUB       0.113500
     39 H8          -1.0160    -4.4830    -2.2290 ha         1 SUB       0.116000
     40 H9          -2.4730    -2.8650    -3.4070 ha         1 SUB       0.113500
     41 H10         -3.7400    -1.1850    -2.1310 ha         1 SUB       0.106500
     42 H121        -6.4410     3.5350    -0.9000 hc         1 SUB       0.046700
     43 H122        -7.3580     2.2660    -0.0710 hc         1 SUB       0.046700
     44 H123        -7.4880     3.9410     0.4570 hc         1 SUB       0.046700
     45 H131         2.5340    -2.1450     1.3610 h1         1 SUB       0.080200
     46 H132         1.8330    -1.3680     2.7630 h1         1 SUB       0.080200
     47 H141         3.9860    -0.1580     0.9450 h1         1 SUB       0.080700
     48 H142         4.2010    -0.7700     2.5780 h1         1 SUB       0.080700
     49 H151         2.0730     2.0620     0.5670 h1         1 SUB       0.094700
     50 H152         1.2820     2.6790     2.0120 h1         1 SUB       0.094700
     51 H16          0.4370     0.4260     2.5530 h1         1 SUB       0.088700
     52 H18          3.9230    -1.5440    -1.3070 ha         1 SUB       0.140500
     53 H19          5.6770    -0.2250    -2.3960 ha         1 SUB       0.119000
     54 H21          2.9450     3.0320    -2.8910 ha         1 SUB       0.119000
     55 H22          1.1810     1.7310    -1.7950 ha         1 SUB       0.140500
     56 H231         5.8240     1.8020    -4.3260 hc         1 SUB       0.050033
     57 H232         5.1970     3.2980    -3.6370 hc         1 SUB       0.050033
     58 H233         6.4120     2.3570    -2.7690 hc         1 SUB       0.050033
     59 O1          -4.7810     2.0090     0.5170 os         1 SUB      -0.451100
     60 O2          -3.4620     2.0970     2.3200 o          1 SUB      -0.479000
@<TRIPOS>BOND
     1     1     2 1   
     2     1    15 2   
     3     1    19 1   
     4     2     3 1   
     5     2    31 1   
     6     3     5 1   
     7     3    12 1   
     8     3    32 1   
     9     4    13 1   
    10     4    33 1   
    11     4    34 1   
    12     4    59 1   
    13     5     6 1   
    14     5    35 1   
    15     5    36 1   
    16     6     7 ar  
    17     6    11 ar  
    18     7     8 ar  
    19     7    37 1   
    20     8     9 ar  
    21     8    38 1   
    22     9    10 ar  
    23     9    39 1   
    24    10    11 ar  
    25    10    40 1   
    26    11    41 1   
    27    12    59 1   
    28    12    60 2   
    29    13    42 1   
    30    13    43 1   
    31    13    44 1   
    32    14    16 1   
    33    14    20 1   
    34    14    45 1   
    35    14    46 1   
    36    16    17 1   
    37    16    47 1   
    38    16    48 1   
    39    17    18 1   
    40    18    19 1   
    41    18    49 1   
    42    18    50 1   
    43    19    20 1   
    44    19    51 1   
    45    20    21 1   
    46    21    22 1   
    47    21    28 2   
    48    21    29 2   
    49    22    23 ar  
    50    22    27 ar  
    51    23    24 ar  
    52    23    52 1   
    53    24    25 ar  
    54    24    53 1   
    55    25    26 ar  
    56    25    30 1   
    57    26    27 ar  
    58    26    54 1   
    59    27    55 1   
    60    30    56 1   
    61    30    57 1   
    62    30    58 1   
@<TRIPOS>SUBSTRUCTURE
     1 SUB         1 TEMP              0 ****  ****    0 ROOT
