@<TRIPOS>MOLECULE
SUB
   60    62     1     0     0
SMALL
No Charge or Current Charge


@<TRIPOS>ATOM
      1 C1          -0.2040    -1.0690    -0.3780 c          1 SUB       0.616100
      2 N1          -0.6920     0.0400     0.2970 ns         1 SUB      -0.463900
      3 C2          -1.9660     0.7270    -0.0210 c3         1 SUB       0.062700
      4 C3          -2.6610     4.4030    -0.4430 c3         1 SUB       0.167600
      5 C4          -3.1670     0.1360     0.7630 c3         1 SUB      -0.036100
      6 C5          -3.3010    -1.3770     0.6350 ca         1 SUB      -0.087300
      7 C6          -2.7580    -2.2260     1.6200 ca         1 SUB      -0.103000
      8 C7          -2.8700    -3.6220     1.4940 ca         1 SUB      -0.102000
      9 C8          -3.5290    -4.1770     0.3850 ca         1 SUB      -0.097000
     10 C9          -4.0760    -3.3350    -0.5990 ca         1 SUB      -0.102000
     11 C10         -3.9630    -1.9400    -0.4740 ca         1 SUB      -0.103000
     12 C11         -1.8430     2.2460     0.2450 c          1 SUB       0.583100
     13 C12         -3.6400     4.9640    -1.4850 c3         1 SUB      -0.097100
     14 C13          3.0790    -3.2280    -0.2240 c6         1 SUB       0.198800
     15 O3          -0.7620    -1.4840    -1.3860 o          1 SUB      -0.587100
     16 C14          3.9260    -2.6860     0.9540 c6         1 SUB       0.018600
     17 S1           2.9050    -2.1480     2.4040 ss         1 SUB      -0.416000
     18 C15          1.6500    -1.1150     1.5020 c6         1 SUB       0.042600
     19 C16          1.0680    -1.7830     0.2140 c6         1 SUB       0.129500
     20 N2           2.1470    -2.2030    -0.7640 n3         1 SUB      -0.741500
     21 S2           2.7360    -1.1720    -2.0080 sy         1 SUB       1.164600
     22 C17          2.2530     0.5020    -1.5330 ca         1 SUB      -0.311500
     23 C18          3.0490     1.2330    -0.6270 ca         1 SUB      -0.011000
     24 C19          2.7230     2.5640    -0.3190 ca         1 SUB      -0.134500
     25 C20          1.6210     3.1890    -0.9300 ca         1 SUB      -0.016300
     26 C21          0.8400     2.4650    -1.8490 ca         1 SUB      -0.134500
     27 C22          1.1560     1.1310    -2.1570 ca         1 SUB      -0.011000
     28 O4           4.1990    -1.2140    -1.9060 o          1 SUB      -0.530500
     29 O5           2.0430    -1.5630    -3.2390 o          1 SUB      -0.530500
     30 C23          1.2970     4.6400    -0.6110 c3         1 SUB      -0.058800
     31 HN1         -0.1570     0.3850     1.0850 hn         1 SUB       0.328500
     32 H2          -2.1650     0.6190    -1.0950 h1         1 SUB       0.108700
     33 H31         -1.6610     4.8170    -0.6220 h1         1 SUB       0.048700
     34 H32         -2.9860     4.6990     0.5640 h1         1 SUB       0.048700
     35 H41         -3.0640     0.4080     1.8210 hc         1 SUB       0.062700
     36 H42         -4.0880     0.6220     0.4190 hc         1 SUB       0.062700
     37 H6          -2.2440    -1.8060     2.4820 ha         1 SUB       0.106500
     38 H7          -2.4460    -4.2720     2.2560 ha         1 SUB       0.113500
     39 H8          -3.6160    -5.2570     0.2870 ha         1 SUB       0.116000
     40 H9          -4.5860    -3.7640    -1.4590 ha         1 SUB       0.113500
     41 H10         -4.3840    -1.2960    -1.2430 ha         1 SUB       0.106500
     42 H121        -3.3230     4.6910    -2.4980 hc         1 SUB       0.046700
     43 H122        -4.6510     4.5740    -1.3150 hc         1 SUB       0.046700
     44 H123        -3.6780     6.0580    -1.4200 hc         1 SUB       0.046700
     45 H131         3.7490    -3.6080    -1.0110 h1         1 SUB       0.080200
     46 H132         2.5110    -4.0980     0.1360 h1         1 SUB       0.080200
     47 H141         4.5270    -1.8300     0.6200 h1         1 SUB       0.080700
     48 H142         4.6200    -3.4660     1.2960 h1         1 SUB       0.080700
     49 H151         2.1130    -0.1510     1.2630 h1         1 SUB       0.094700
     50 H152         0.8410    -0.9240     2.2210 h1         1 SUB       0.094700
     51 H16          0.6130    -2.7110     0.5900 h1         1 SUB       0.088700
     52 H18          3.9220     0.7770    -0.1620 ha         1 SUB       0.140500
     53 H19          3.3400     3.1170     0.3850 ha         1 SUB       0.119000
     54 H21         -0.0090     2.9390    -2.3360 ha         1 SUB       0.119000
     55 H22          0.5500     0.5950    -2.8870 ha         1 SUB       0.140500
     56 H231         2.2100     5.2430    -0.5430 hc         1 SUB       0.050033
     57 H232         0.6640     5.0920    -1.3830 hc         1 SUB       0.050033
     58 H233         0.7710     4.7220     0.3470 hc         1 SUB       0.050033
     59 O1          -2.6600     2.9730    -0.5810 os         1 SUB      -0.451100
     60 O2          -1.1020     2.7350     1.0900 o          1 SUB      -0.479000
@<TRIPOS>BOND
     1     1     2 1   
     2     1    15 2   
     3     1    19 1   
     4     2     3 1   
     5     2    31 1   
     6     3     5 1   
     7     3    12 1   
     8     3    32 1   
     9     4    13 1   
    10     4    33 1   
    11     4    34 1   
    12     4    59 1   
    13     5     6 1   
    14     5    35 1   
    15     5    36 1   
    16     6     7 ar  
    17     6    11 ar  
    18     7     8 ar  
    19     7    37 1   
    20     8     9 ar  
    21     8    38 1   
    22     9    10 ar  
    23     9    39 1   
    24    10    11 ar  
    25    10    40 1   
    26    11    41 1   
    27    12    59 1   
    28    12    60 2   
    29    13    42 1   
    30    13    43 1   
    31    13    44 1   
    32    14    16 1   
    33    14    20 1   
    34    14    45 1   
    35    14    46 1   
    36    16    17 1   
    37    16    47 1   
    38    16    48 1   
    39    17    18 1   
    40    18    19 1   
    41    18    49 1   
    42    18    50 1   
    43    19    20 1   
    44    19    51 1   
    45    20    21 1   
    46    21    22 1   
    47    21    28 2   
    48    21    29 2   
    49    22    23 ar  
    50    22    27 ar  
    51    23    24 ar  
    52    23    52 1   
    53    24    25 ar  
    54    24    53 1   
    55    25    26 ar  
    56    25    30 1   
    57    26    27 ar  
    58    26    54 1   
    59    27    55 1   
    60    30    56 1   
    61    30    57 1   
    62    30    58 1   
@<TRIPOS>SUBSTRUCTURE
     1 SUB         1 TEMP              0 ****  ****    0 ROOT
