@<TRIPOS>MOLECULE
SUD
   59    60     1     0     0
SMALL
bcc


@<TRIPOS>ATOM
      1 C1           3.7400     0.4210     0.4540 c3         1 SUD       0.164400
      2 N1          -5.8200    -0.5240    -0.7560 n          1 SUD      -0.372000
      3 C3          -5.3870    -1.3230     0.3210 c          1 SUD       0.849900
      4 N3          -5.4870    -2.6630     0.1980 nc         1 SUD      -0.751100
      5 C4          -5.9750    -3.2200    -0.8920 cd         1 SUD       0.775500
      6 C5          -6.4200    -2.4420    -2.0050 cd         1 SUD      -0.467600
      7 C6          -6.3120    -1.1070    -1.8790 cc         1 SUD       0.091600
      8 O8          -4.9400    -0.7920     1.3260 o          1 SUD      -0.547500
      9 N4          -6.0520    -4.5480    -0.9440 nv         1 SUD      -0.943800
     10 C7          -5.7260     0.9250    -0.7200 c5         1 SUD       0.321500
     11 C2          -6.4680     1.6270     0.4160 c5         1 SUD       0.043100
     12 O2          -7.8210     1.7560     0.0730 oh         1 SUD      -0.614800
     13 C8          -5.7060     2.9550     0.4760 c5         1 SUD       0.076100
     14 C9          -4.2800     2.5140     0.1600 c5         1 SUD       0.139100
     15 O4          -4.3940     1.3350    -0.6410 os         1 SUD      -0.341600
     16 O3          -6.1450     3.8310    -0.5320 oh         1 SUD      -0.594800
     17 C10         -3.4620     2.2570     1.4080 c3         1 SUD       0.197400
     18 O5          -2.1770     1.8140     1.0270 os         1 SUD      -0.517200
     19 PA          -0.9620     2.0600     2.1120 p5         1 SUD       1.450800
     20 O1A         -0.6530     3.5240     2.1770 o          1 SUD      -0.861000
     21 O2A         -1.2380     1.2900     3.3650 o          1 SUD      -0.861000
     22 O3A          0.1540     1.2880     1.1890 os         1 SUD      -0.682800
     23 PB           1.5180     0.6140     1.8090 p5         1 SUD       1.462800
     24 O1B          2.0730     1.4720     2.9030 o          1 SUD      -0.860000
     25 O2B          2.3840     0.8340     0.4300 os         1 SUD      -0.577200
     26 O3B          1.3020    -0.8510     2.0320 o          1 SUD      -0.860000
     27 C27          4.3120     0.5410    -0.9500 c3         1 SUD       0.128100
     28 C28          5.7010    -0.1370    -1.0660 c3         1 SUD       0.241800
     29 C29          6.2950     0.1000    -2.4560 c3         1 SUD       0.099400
     30 O30          5.3940    -0.3310    -3.4540 oh         1 SUD      -0.562800
     31 O31          5.4430    -1.5040    -0.8820 os         1 SUD      -0.543200
     32 C32          6.6820     0.4550    -0.0480 c3         1 SUD      -0.131100
     33 O33          4.3140     1.8820    -1.3930 oh         1 SUD      -0.626800
     34 P34          6.5680    -2.6630    -0.3340 p5         1 SUD       1.293900
     35 O35          7.8600    -2.4140    -1.1100 o          1 SUD      -0.935500
     36 O36          6.6910    -2.4450     1.1700 o          1 SUD      -0.935500
     37 O37          5.8310    -3.9410    -0.7210 o          1 SUD      -0.935500
     38 H11          3.8360    -0.6140     0.7940 h1         1 SUD       0.037700
     39 H12          4.3100     1.0460     1.1530 h1         1 SUD       0.037700
     40 H5          -6.8170    -2.8900    -2.9030 ha         1 SUD       0.128000
     41 H6          -6.6150    -0.4390    -2.6740 h4         1 SUD       0.135000
     42 HN41        -6.3980    -5.0240    -1.7590 hn         1 SUD       0.432800
     43 HN42        -5.7270    -5.1060    -0.1720 hn         1 SUD       0.432800
     44 H1          -6.1720     1.2590    -1.6650 h2         1 SUD       0.034700
     45 H2          -6.3400     1.0910     1.3570 h1         1 SUD       0.097700
     46 H7          -8.3330     1.8750     0.8790 ho         1 SUD       0.397000
     47 H3          -5.7770     3.4190     1.4690 h1         1 SUD       0.055700
     48 H4          -3.7730     3.2830    -0.4330 h1         1 SUD       0.096700
     49 H8          -7.1090     3.7900    -0.5540 ho         1 SUD       0.388000
     50 H5'1        -3.9510     1.5200     2.0500 h1         1 SUD       0.016200
     51 H5'2        -3.4170     3.2030     1.9620 h1         1 SUD       0.016200
     52 H27          3.6380     0.0130    -1.6310 h1         1 SUD       0.095700
     53 H291         6.5390     1.1640    -2.5750 h1         1 SUD       0.004700
     54 H292         7.2310    -0.4650    -2.4960 h1         1 SUD       0.004700
     55 H30          5.8090    -0.1830    -4.3070 ho         1 SUD       0.330000
     56 H321         6.7120     1.5450    -0.1070 hc         1 SUD       0.028700
     57 H322         6.4270     0.1700     0.9690 hc         1 SUD       0.028700
     58 H323         7.6910     0.0920    -0.2410 hc         1 SUD       0.028700
     59 H33          4.8420     2.4100    -0.7860 ho         1 SUD       0.362000
@<TRIPOS>BOND
     1     1    25 1   
     2     1    27 1   
     3     1    38 1   
     4     1    39 1   
     5     2     3 1   
     6     2     7 1   
     7     2    10 1   
     8     3     4 1   
     9     3     8 2   
    10     4     5 2   
    11     5     6 1   
    12     5     9 1   
    13     6     7 2   
    14     6    40 1   
    15     7    41 1   
    16     9    42 1   
    17     9    43 1   
    18    10    11 1   
    19    10    15 1   
    20    10    44 1   
    21    11    12 1   
    22    11    13 1   
    23    11    45 1   
    24    12    46 1   
    25    13    14 1   
    26    13    16 1   
    27    13    47 1   
    28    14    15 1   
    29    14    17 1   
    30    14    48 1   
    31    16    49 1   
    32    17    18 1   
    33    17    50 1   
    34    17    51 1   
    35    18    19 1   
    36    19    20 1   
    37    19    21 1   
    38    19    22 1   
    39    22    23 1   
    40    23    24 1   
    41    23    25 1   
    42    23    26 1   
    43    27    28 1   
    44    27    33 1   
    45    27    52 1   
    46    28    29 1   
    47    28    31 1   
    48    28    32 1   
    49    29    30 1   
    50    29    53 1   
    51    29    54 1   
    52    30    55 1   
    53    31    34 1   
    54    32    56 1   
    55    32    57 1   
    56    32    58 1   
    57    33    59 1   
    58    34    35 1   
    59    34    36 1   
    60    34    37 1   
@<TRIPOS>SUBSTRUCTURE
     1 SUD         1 TEMP              0 ****  ****    0 ROOT
