@<TRIPOS>MOLECULE
SUD
   59    60     1     0     0
SMALL
No Charge or Current Charge


@<TRIPOS>ATOM
      1 C1           2.9280     1.5960     0.7150 c3         1 SUD       0.187600
      2 N1          -3.7960    -0.3410    -1.4340 n          1 SUD      -0.305000
      3 C3          -3.8720    -1.5230    -0.6610 c          1 SUD       0.707400
      4 N3          -4.1630    -2.6990    -1.3060 nc         1 SUD      -0.751100
      5 C4          -4.3710    -2.7110    -2.5770 cd         1 SUD       0.775500
      6 C5          -4.3260    -1.5740    -3.4050 cd         1 SUD      -0.517600
      7 C6          -4.0340    -0.3740    -2.8040 cc         1 SUD       0.041600
      8 O8          -3.7270    -1.5380     0.5490 o          1 SUD      -0.472000
      9 N4          -4.6420    -3.8910    -3.0970 nv         1 SUD      -1.054200
     10 C7          -3.4220     0.9580    -0.8110 c5         1 SUD       0.344700
     11 C2          -4.6740     1.5340    -0.0740 c5         1 SUD       0.066300
     12 O2          -5.6570     2.1490    -0.9420 oh         1 SUD      -0.737000
     13 C8          -3.9530     2.5990     0.7950 c5         1 SUD       0.099300
     14 C9          -2.6640     1.8160     1.2450 c5         1 SUD       0.162300
     15 O4          -2.3820     0.8630     0.1790 os         1 SUD      -0.388000
     16 O3          -3.6690     3.7490    -0.0110 oh         1 SUD      -0.717000
     17 C10         -2.8620     1.0450     2.5870 c3         1 SUD       0.220600
     18 O5          -1.6560     0.3840     3.0180 os         1 SUD      -0.540400
     19 PA          -0.3910     1.1940     3.6120 p5         1 SUD       1.450800
     20 O1A         -0.8790     2.3260     4.4550 o          1 SUD      -0.861000
     21 O2A          0.4670     0.2460     4.3850 o          1 SUD      -0.861000
     22 O3A          0.2720     1.5970     2.2380 os         1 SUD      -0.682800
     23 PB           1.2480     2.8240     2.3840 p5         1 SUD       1.462800
     24 O1B          0.5230     4.1290     2.3880 o          1 SUD      -0.860000
     25 O2B          1.9840     2.6630     0.9570 os         1 SUD      -0.600400
     26 O3B          2.2550     2.7200     3.4820 o          1 SUD      -0.860000
     27 C27          2.2580     0.5100    -0.1880 c3         1 SUD       0.151300
     28 C28          3.2880    -0.4570    -0.8970 c3         1 SUD       0.265000
     29 C29          2.5350    -1.6290    -1.6420 c3         1 SUD       0.122600
     30 O30          1.7230    -2.4380    -0.7620 oh         1 SUD      -0.625000
     31 O31          4.1220    -1.0110     0.1650 os         1 SUD      -0.566400
     32 C32          4.1830     0.3070    -1.9290 c3         1 SUD      -0.131100
     33 O33          1.3960     1.1810    -1.1420 oh         1 SUD      -0.689000
     34 P34          5.5330    -1.7920     0.0170 p5         1 SUD       1.293900
     35 O35          5.4630    -2.8650    -1.0130 o          1 SUD      -0.935500
     36 O36          6.6270    -0.8350    -0.3190 o          1 SUD      -0.935500
     37 O37          5.8510    -2.4200     1.3320 o          1 SUD      -0.935500
     38 H11          3.2580     1.1270     1.6530 h1         1 SUD       0.037700
     39 H12          3.8200     2.0070     0.2240 h1         1 SUD       0.037700
     40 H5          -4.5180    -1.6440    -4.4680 ha         1 SUD       0.178000
     41 H6          -3.9630     0.5950    -3.2940 h4         1 SUD       0.185000
     42 HN41        -4.4210    -3.9940    -4.0780 hn         1 SUD       0.488000
     43 HN42        -4.3970    -4.6700    -2.5010 hn         1 SUD       0.488000
     44 H1          -3.0950     1.6320    -1.6120 h2         1 SUD       0.034700
     45 H2          -5.1340     0.7650     0.5660 h1         1 SUD       0.097700
     46 H7          -6.5110     1.6610    -0.8210 ho         1 SUD       0.496000
     47 H3          -4.5690     2.8880     1.6590 h1         1 SUD       0.055700
     48 H4          -1.8250     2.5150     1.3460 h1         1 SUD       0.096700
     49 H8          -4.3900     3.7300    -0.6890 ho         1 SUD       0.487000
     50 H5'1        -3.6650     0.3080     2.4620 h1         1 SUD       0.016200
     51 H5'2        -3.2010     1.7550     3.3520 h1         1 SUD       0.016200
     52 H27          1.6410    -0.1070     0.4820 h1         1 SUD       0.095700
     53 H291         1.8970    -1.1930    -2.4230 h1         1 SUD       0.004700
     54 H292         3.2590    -2.2630    -2.1670 h1         1 SUD       0.004700
     55 H30          1.3640    -3.1730    -1.3040 ho         1 SUD       0.369000
     56 H321         3.5630     0.8390    -2.6610 hc         1 SUD       0.028700
     57 H322         4.8320     1.0440    -1.4410 hc         1 SUD       0.028700
     58 H323         4.8170    -0.3830    -2.4980 hc         1 SUD       0.028700
     59 H33          1.1630     2.0200    -0.6820 ho         1 SUD       0.401000
@<TRIPOS>BOND
     1     1    25 1   
     2     1    27 1   
     3     1    38 1   
     4     1    39 1   
     5     2     3 1   
     6     2     7 1   
     7     2    10 1   
     8     3     4 1   
     9     3     8 2   
    10     4     5 2   
    11     5     6 1   
    12     5     9 1   
    13     6     7 2   
    14     6    40 1   
    15     7    41 1   
    16     9    42 1   
    17     9    43 1   
    18    10    11 1   
    19    10    15 1   
    20    10    44 1   
    21    11    12 1   
    22    11    13 1   
    23    11    45 1   
    24    12    46 1   
    25    13    14 1   
    26    13    16 1   
    27    13    47 1   
    28    14    15 1   
    29    14    17 1   
    30    14    48 1   
    31    16    49 1   
    32    17    18 1   
    33    17    50 1   
    34    17    51 1   
    35    18    19 1   
    36    19    20 1   
    37    19    21 1   
    38    19    22 1   
    39    22    23 1   
    40    23    24 1   
    41    23    25 1   
    42    23    26 1   
    43    27    28 1   
    44    27    33 1   
    45    27    52 1   
    46    28    29 1   
    47    28    31 1   
    48    28    32 1   
    49    29    30 1   
    50    29    53 1   
    51    29    54 1   
    52    30    55 1   
    53    31    34 1   
    54    32    56 1   
    55    32    57 1   
    56    32    58 1   
    57    33    59 1   
    58    34    35 1   
    59    34    36 1   
    60    34    37 1   
@<TRIPOS>SUBSTRUCTURE
     1 SUD         1 TEMP              0 ****  ****    0 ROOT
