@<TRIPOS>MOLECULE
SUF
   24    22     1     0     0
SMALL
No Charge or Current Charge


@<TRIPOS>ATOM
      1 P1          -0.5500    -3.8370    -3.5310 p5         1 SUF       1.588500
      2 P2          -1.1500    -2.5750    -5.8510 p5         1 SUF       1.588500
      3 S           -0.7940    -1.0910    -1.5430 s4         1 SUF       1.103000
      4 O1          -1.6410    -1.2810    -6.4160 o          1 SUF      -0.945000
      5 O2          -3.0700    -2.6930    -3.8680 oh         1 SUF      -0.398000
      6 O3           0.3160    -2.6610    -6.1110 o          1 SUF      -0.945000
      7 O4          -0.5650    -5.0800    -4.3520 o          1 SUF      -0.945000
      8 O5           0.8230    -3.3060    -3.2830 o          1 SUF      -0.945000
      9 C1          -1.6390    -2.4740    -4.0920 c3         1 SUF      -1.014000
     10 O6          -1.1030    -4.1600    -2.1810 o          1 SUF      -0.945000
     11 C2          -1.2360    -1.0800    -3.3910 c3         1 SUF      -0.214000
     12 O7          -1.9270    -3.6550    -6.5310 o          1 SUF      -0.945000
     13 C3          -2.3070    -0.1890    -0.9370 c3         1 SUF      -0.506000
     14 C4          14.8360     4.8250    13.9720 c2         1 SUF      -0.727000
     15 HS          -0.1930     0.1760    -1.6880 hs         1 SUF      -0.335000
     16 HO2         -3.3370    -3.4850    -4.3780 ho         1 SUF       0.224000
     17 H21         -2.0120    -0.3210    -3.5420 h1         1 SUF       0.089000
     18 H22         -0.3230    -0.6970    -3.8640 h1         1 SUF       0.089000
     19 H31         -2.5560     0.6090    -1.6450 h1         1 SUF       0.062667
     20 H32         -3.1300    -0.9090    -0.8600 h1         1 SUF       0.062667
     21 H33         -2.0780     0.2380     0.0460 h1         1 SUF       0.062667
     22 H41         14.7840     4.4090    14.9730 ha         1 SUF      -0.003000
     23 H42         15.7930     5.1310    13.5600 ha         1 SUF      -0.003000
     24 H43         13.9300     4.9360    13.3830 ha         1 SUF      -0.003000
@<TRIPOS>BOND
     1     1     7 1   
     2     1     8 1   
     3     1     9 1   
     4     1    10 1   
     5     2     4 1   
     6     2     6 1   
     7     2     9 1   
     8     2    12 1   
     9     3    11 1   
    10     3    13 1   
    11     3    15 1   
    12     5     9 1   
    13     5    16 1   
    14     9    11 1   
    15    11    17 1   
    16    11    18 1   
    17    13    19 1   
    18    13    20 1   
    19    13    21 1   
    20    14    22 1   
    21    14    23 1   
    22    14    24 1   
@<TRIPOS>SUBSTRUCTURE
     1 SUF         1 TEMP              0 ****  ****    0 ROOT
