@<TRIPOS>MOLECULE
SUF
   24    22     1     0     0
SMALL
abcg2


@<TRIPOS>ATOM
      1 P1           2.0300    -2.2900    -2.4980 p5         1 SUF       1.588500
      2 P2          -0.9890    -2.2760    -1.4840 p5         1 SUF       1.588500
      3 S            2.6100     0.1400    -0.1980 s4         1 SUF       1.103000
      4 O1          -1.8230    -1.2470    -0.7010 o          1 SUF      -0.945000
      5 O2           1.1490    -2.7590    -0.0090 oh         1 SUF      -0.398000
      6 O3          -1.2650    -2.2410    -2.9840 o          1 SUF      -0.945000
      7 O4           1.7430    -3.7390    -2.9240 o          1 SUF      -0.945000
      8 O5           1.7970    -1.2540    -3.6080 o          1 SUF      -0.945000
      9 C1           0.8410    -1.9010    -1.1170 c3         1 SUF      -1.014000
     10 O6           3.4160    -2.1520    -1.8350 o          1 SUF      -0.945000
     11 C2           0.9300    -0.4550    -0.6940 c3         1 SUF      -0.214000
     12 O7          -1.0820    -3.6950    -0.8530 o          1 SUF      -0.945000
     13 C3           2.3910     1.8980     0.1630 c3         1 SUF      -0.506000
     14 C4           2.0230    -0.1690     1.9640 c2         1 SUF      -0.727000
     15 HS           2.8390     0.4900    -1.5770 hs         1 SUF      -0.335000
     16 HO2          0.4190    -3.4170    -0.0920 ho         1 SUF       0.224000
     17 H21          0.3010    -0.2380     0.1650 h1         1 SUF       0.089000
     18 H22          0.6430     0.1880    -1.5250 h1         1 SUF       0.089000
     19 H31          1.3310     2.1330     0.2390 h1         1 SUF       0.062667
     20 H32          2.8680     2.1180     1.1140 h1         1 SUF       0.062667
     21 H33          2.8320     2.4840    -0.6450 h1         1 SUF       0.062667
     22 H41          1.7780    -1.2300     2.0210 ha         1 SUF      -0.003000
     23 H42          2.9040     0.0320     2.5860 ha         1 SUF      -0.003000
     24 H43          1.1830     0.4110     2.3620 ha         1 SUF      -0.003000
@<TRIPOS>BOND
     1     1     7 1   
     2     1     8 1   
     3     1     9 1   
     4     1    10 1   
     5     2     4 1   
     6     2     6 1   
     7     2     9 1   
     8     2    12 1   
     9     3    11 1   
    10     3    13 1   
    11     3    15 1   
    12     5     9 1   
    13     5    16 1   
    14     9    11 1   
    15    11    17 1   
    16    11    18 1   
    17    13    19 1   
    18    13    20 1   
    19    13    21 1   
    20    14    22 1   
    21    14    23 1   
    22    14    24 1   
@<TRIPOS>SUBSTRUCTURE
     1 SUF         1 TEMP              0 ****  ****    0 ROOT
