@<TRIPOS>MOLECULE
SUH
   15    14     1     0     0
SMALL
No Charge or Current Charge


@<TRIPOS>ATOM
      1 OAG         -2.7030     0.1070    -0.6260 o          1 SUH      -0.781000
      2 CAJ         -2.0040    -0.1220     0.3490 c          1 SUH       0.703000
      3 CAK         -0.5860    -0.6950     0.1260 c3         1 SUH      -0.169400
      4 CAL          0.5050     0.4250     0.0730 c3         1 SUH      -0.165700
      5 CAM          1.9360    -0.1620     0.1940 c          1 SUH       0.710000
      6 OAN          2.3410    -0.9200    -0.6760 o          1 SUH      -0.775000
      7 OAO          2.6100     0.1550     1.1630 o          1 SUH      -0.775000
      8 OAP         -2.3680     0.0910     1.4960 o          1 SUH      -0.781000
      9 CAQ          0.3860     1.3370    -1.1730 c3         1 SUH      -0.048100
     10 HAK         -0.3070    -1.3140     0.9880 hc         1 SUH       0.019200
     11 HAKA        -0.5310    -1.2320    -0.8290 hc         1 SUH       0.019200
     12 HAL          0.3510     1.0660     0.9490 hc         1 SUH       0.041700
     13 HAQ          0.4670     0.7540    -2.0990 hc         1 SUH       0.001033
     14 HAQA        -0.5730     1.8680    -1.1820 hc         1 SUH       0.001033
     15 HAQB         1.1830     2.0900    -1.1720 hc         1 SUH       0.001033
@<TRIPOS>BOND
     1     1     2 1   
     2     2     3 1   
     3     2     8 1   
     4     3     4 1   
     5     3    10 1   
     6     3    11 1   
     7     4     5 1   
     8     4     9 1   
     9     4    12 1   
    10     5     6 1   
    11     5     7 1   
    12     9    13 1   
    13     9    14 1   
    14     9    15 1   
@<TRIPOS>SUBSTRUCTURE
     1 SUH         1 TEMP              0 ****  ****    0 ROOT
