@<TRIPOS>MOLECULE
SUH
   15    14     1     0     0
SMALL
bcc


@<TRIPOS>ATOM
      1 OAG         -2.8890    -0.5190    -0.6580 o          1 SUH      -0.886300
      2 CAJ         -2.0140    -0.1390     0.1510 c          1 SUH       0.913600
      3 CAK         -0.5890    -0.6770    -0.0480 c3         1 SUH      -0.169400
      4 CAL          0.5130     0.3560     0.1500 c3         1 SUH      -0.165700
      5 CAM          1.9380    -0.2390     0.1500 c          1 SUH       0.920600
      6 OAN          2.0710    -1.4650    -0.0430 o          1 SUH      -0.880300
      7 OAO          2.8710     0.5690     0.3520 o          1 SUH      -0.880300
      8 OAP         -2.2080     0.6140     1.1310 o          1 SUH      -0.886300
      9 CAQ          0.4170     1.4740    -0.8890 c3         1 SUH      -0.048100
     10 HAK         -0.4450    -1.4920     0.6710 hc         1 SUH       0.019200
     11 HAKA        -0.5010    -1.1340    -1.0380 hc         1 SUH       0.019200
     12 HAL          0.3640     0.8150     1.1340 hc         1 SUH       0.041700
     13 HAQ          0.5330     1.0790    -1.9030 hc         1 SUH       0.001033
     14 HAQA        -0.5480     1.9810    -0.8450 hc         1 SUH       0.001033
     15 HAQB         1.1920     2.2240    -0.7350 hc         1 SUH       0.001033
@<TRIPOS>BOND
     1     1     2 1   
     2     2     3 1   
     3     2     8 1   
     4     3     4 1   
     5     3    10 1   
     6     3    11 1   
     7     4     5 1   
     8     4     9 1   
     9     4    12 1   
    10     5     6 1   
    11     5     7 1   
    12     9    13 1   
    13     9    14 1   
    14     9    15 1   
@<TRIPOS>SUBSTRUCTURE
     1 SUH         1 TEMP              0 ****  ****    0 ROOT
