@<TRIPOS>MOLECULE
SUI
   19    19     1     0     0
SMALL
No Charge or Current Charge


@<TRIPOS>ATOM
      1 N            1.1550     0.9250     3.0440 n8         1 SUI      -0.999200
      2 C1A          0.3980    -0.0520     2.2050 c5         1 SUI       0.081500
      3 CB          -1.0960     0.3410     2.0480 c5         1 SUI      -0.171400
      4 CG          -1.5080    -0.3180     0.7260 c          1 SUI       0.577000
      5 OD          -2.5790    -0.8200     0.4150 o          1 SUI      -0.520000
      6 C1           0.8600    -0.2370     0.7120 c          1 SUI       0.532000
      7 O1           1.9920    -0.2390     0.2420 o          1 SUI      -0.528000
      8 N2          -0.3240    -0.4260     0.0060 n          1 SUI      -0.322400
      9 C2A         -0.3090    -0.8540    -1.4260 c3         1 SUI      -0.063000
     10 C            0.3260     0.1630    -2.4030 c          1 SUI       0.720000
     11 O           -0.0230     1.3340    -2.3280 o          1 SUI      -0.724500
     12 OXT          1.1400    -0.2470    -3.2180 o          1 SUI      -0.724500
     13 HN           1.1510     1.8480     2.5910 hn         1 SUI       0.410000
     14 H            2.1540     0.6730     3.0420 hn         1 SUI       0.410000
     15 H1A          0.4770    -1.0430     2.6780 h1         1 SUI       0.066700
     16 HB1         -1.7570     0.0510     2.8700 hc         1 SUI       0.077200
     17 HB2         -1.1650     1.4240     1.8960 hc         1 SUI       0.077200
     18 H2A          0.2450    -1.7980    -1.5030 h1         1 SUI       0.049200
     19 H2B         -1.3320    -1.0410    -1.7740 h1         1 SUI       0.049200
@<TRIPOS>BOND
     1     1     2 1   
     2     1    13 1   
     3     1    14 1   
     4     2     3 1   
     5     2     6 1   
     6     2    15 1   
     7     3     4 1   
     8     3    16 1   
     9     3    17 1   
    10     4     5 2   
    11     4     8 1   
    12     6     7 2   
    13     6     8 1   
    14     8     9 1   
    15     9    10 1   
    16     9    18 1   
    17     9    19 1   
    18    10    11 1   
    19    10    12 1   
@<TRIPOS>SUBSTRUCTURE
     1 SUI         1 TEMP              0 ****  ****    0 ROOT
