@<TRIPOS>MOLECULE
SUI
   19    19     1     0     0
SMALL
abcg2


@<TRIPOS>ATOM
      1 N            1.1010     1.0030     2.8920 n8         1 SUI      -0.999200
      2 C1A          0.3440    -0.0210     2.2160 c5         1 SUI       0.081500
      3 CB          -1.1050     0.3600     1.9320 c5         1 SUI      -0.171400
      4 CG          -1.3950    -0.2110     0.5700 c          1 SUI       0.577000
      5 OD          -2.4660    -0.2730     0.0150 o          1 SUI      -0.520000
      6 C1           0.8630    -0.4370     0.8440 c          1 SUI       0.532000
      7 O1           2.0180    -0.5810     0.5230 o          1 SUI      -0.528000
      8 N2          -0.2140    -0.6570     0.0240 n          1 SUI      -0.322400
      9 C2A         -0.0830    -0.9880    -1.3720 c3         1 SUI      -0.063000
     10 C            0.0820     0.2720    -2.2570 c          1 SUI       0.720000
     11 O            0.0530     1.3720    -1.6830 o          1 SUI      -0.724500
     12 OXT          0.2230     0.0350    -3.4700 o          1 SUI      -0.724500
     13 HN           1.2030     1.8180     2.3010 hn         1 SUI       0.410000
     14 H            2.0360     0.6700     3.0880 hn         1 SUI       0.410000
     15 H1A          0.3650    -0.9230     2.8360 h1         1 SUI       0.066700
     16 HB1         -1.8150    -0.0040     2.6730 hc         1 SUI       0.077200
     17 HB2         -1.2210     1.4460     1.8730 hc         1 SUI       0.077200
     18 H2A          0.7770    -1.6470    -1.4960 h1         1 SUI       0.049200
     19 H2B         -0.9620    -1.5510    -1.6860 h1         1 SUI       0.049200
@<TRIPOS>BOND
     1     1     2 1   
     2     1    13 1   
     3     1    14 1   
     4     2     3 1   
     5     2     6 1   
     6     2    15 1   
     7     3     4 1   
     8     3    16 1   
     9     3    17 1   
    10     4     5 2   
    11     4     8 1   
    12     6     7 2   
    13     6     8 1   
    14     8     9 1   
    15     9    10 1   
    16     9    18 1   
    17     9    19 1   
    18    10    11 1   
    19    10    12 1   
@<TRIPOS>SUBSTRUCTURE
     1 SUI         1 TEMP              0 ****  ****    0 ROOT
