@<TRIPOS>MOLECULE
SUJ
   31    31     1     0     0
SMALL
abcg2


@<TRIPOS>ATOM
      1 N           -2.1170     1.6540    -0.8770 n8         1 SUJ      -0.956200
      2 CA          -1.8240     0.2550    -1.1150 c6         1 SUJ       0.065500
      3 C1          -3.1010    -0.4860    -1.5020 c          1 SUJ       0.575000
      4 O1          -4.0470     0.1100    -1.9940 o          1 SUJ      -0.533000
      5 CB          -1.0550    -0.4520    -0.0060 c6         1 SUJ      -0.107400
      6 CG          -0.8720    -1.9100    -0.3790 c6         1 SUJ      -0.084400
      7 CD          -2.2200    -2.5870    -0.5060 c6         1 SUJ       0.351700
      8 OD          -2.7570    -2.7700     0.7820 oh         1 SUJ      -0.731000
      9 N2          -3.1300    -1.8310    -1.3470 n          1 SUJ      -0.409800
     10 C2          -4.2580    -2.5540    -1.9160 c3         1 SUJ      -0.062300
     11 C3          -5.5930    -2.3460    -1.1620 c3         1 SUJ       0.168300
     12 C4          -6.4400    -3.6030    -1.1970 c3         1 SUJ      -0.084100
     13 O3          -5.3740    -2.0320     0.2150 oh         1 SUJ      -0.711000
     14 C           -4.3670    -2.3120    -3.4500 c          1 SUJ       0.735000
     15 O           -3.2980    -2.1290    -4.0550 o          1 SUJ      -0.715500
     16 OXT         -5.5070    -2.3860    -3.9440 o          1 SUJ      -0.715500
     17 HN1         -1.2470     2.1320    -0.6760 hn         1 SUJ       0.380000
     18 HN2         -2.6800     1.7480    -0.0390 hn         1 SUJ       0.380000
     19 HA          -1.2020     0.2050    -2.0200 h1         1 SUJ       0.087700
     20 HBC1        -1.5960    -0.3670     0.9400 hc         1 SUJ       0.034700
     21 HBC2        -0.0900     0.0400     0.1340 hc         1 SUJ       0.034700
     22 HGC1        -0.3380    -1.9910    -1.3290 hc         1 SUJ       0.051200
     23 HGC2        -0.2780    -2.4470     0.3630 hc         1 SUJ       0.051200
     24 H0          -2.0850    -3.5610    -0.9940 h2         1 SUJ       0.051700
     25 HD          -3.7200    -2.6310     0.7280 ho         1 SUJ       0.490000
     26 H2          -3.9940    -3.6140    -1.8140 h1         1 SUJ       0.034700
     27 H3          -6.1440    -1.5280    -1.6290 h1         1 SUJ       0.073700
     28 H4C1        -5.9450    -4.4220    -0.6700 hc         1 SUJ       0.034367
     29 H4C2        -6.6070    -3.9140    -2.2250 hc         1 SUJ       0.034367
     30 H4C3        -7.4120    -3.4360    -0.7300 hc         1 SUJ       0.034367
     31 HB          -5.2930    -1.0780     0.3030 ho         1 SUJ       0.441000
@<TRIPOS>BOND
     1     1     2 1   
     2     1    17 1   
     3     1    18 1   
     4     2     3 1   
     5     2     5 1   
     6     2    19 1   
     7     3     4 2   
     8     3     9 1   
     9     5     6 1   
    10     5    20 1   
    11     5    21 1   
    12     6     7 1   
    13     6    22 1   
    14     6    23 1   
    15     7     8 1   
    16     7     9 1   
    17     7    24 1   
    18     8    25 1   
    19     9    10 1   
    20    10    11 1   
    21    10    14 1   
    22    10    26 1   
    23    11    12 1   
    24    11    13 1   
    25    11    27 1   
    26    12    28 1   
    27    12    29 1   
    28    12    30 1   
    29    13    31 1   
    30    14    15 1   
    31    14    16 1   
@<TRIPOS>SUBSTRUCTURE
     1 SUJ         1 TEMP              0 ****  ****    0 ROOT
