@<TRIPOS>MOLECULE
SUJ
   31    31     1     0     0
SMALL
No Charge or Current Charge


@<TRIPOS>ATOM
      1 N           -2.0310     1.7860    -0.7500 n8         1 SUJ      -0.956200
      2 CA          -1.6900     0.3860    -1.1870 c6         1 SUJ       0.065500
      3 C1          -2.9290    -0.4350    -1.7390 c          1 SUJ       0.575000
      4 O1          -3.7180     0.1060    -2.5050 o          1 SUJ      -0.533000
      5 CB          -0.9140    -0.3210    -0.0570 c6         1 SUJ      -0.107400
      6 CG          -0.7670    -1.8160    -0.3840 c6         1 SUJ      -0.084400
      7 CD          -2.1430    -2.5090    -0.5020 c6         1 SUJ       0.351700
      8 OD          -2.7180    -2.6790     0.7800 oh         1 SUJ      -0.731000
      9 N2          -3.1200    -1.7850    -1.3310 n          1 SUJ      -0.409800
     10 C2          -4.2730    -2.6040    -1.8670 c3         1 SUJ      -0.062300
     11 C3          -5.6060    -2.3780    -1.0890 c3         1 SUJ       0.168300
     12 C4          -6.6370    -3.5120    -1.2920 c3         1 SUJ      -0.084100
     13 O3          -5.3390    -2.2860     0.3220 oh         1 SUJ      -0.711000
     14 C           -4.4350    -2.5580    -3.4240 c          1 SUJ       0.735000
     15 O           -3.5400    -3.0560    -4.0940 o          1 SUJ      -0.715500
     16 OXT         -5.4490    -2.0860    -3.9210 o          1 SUJ      -0.715500
     17 HN1         -1.1970     2.2220    -0.3400 hn         1 SUJ       0.380000
     18 HN2         -2.6950     1.7410     0.0320 hn         1 SUJ       0.380000
     19 HA          -1.0110     0.4620    -2.0510 h1         1 SUJ       0.087700
     20 HBC1        -1.4380    -0.2040     0.9020 hc         1 SUJ       0.034700
     21 HBC2         0.0780     0.1360     0.0660 hc         1 SUJ       0.034700
     22 HGC1        -0.2210    -1.9330    -1.3310 hc         1 SUJ       0.051200
     23 HGC2        -0.1600    -2.3150     0.3830 hc         1 SUJ       0.051200
     24 H0          -1.9860    -3.5000    -0.9570 h2         1 SUJ       0.051700
     25 HD          -3.6920    -2.5440     0.6030 ho         1 SUJ       0.490000
     26 H2          -4.0130    -3.6530    -1.6730 h1         1 SUJ       0.034700
     27 H3          -6.0510    -1.4350    -1.4400 h1         1 SUJ       0.073700
     28 H4C1        -6.2310    -4.4730    -0.9530 hc         1 SUJ       0.034367
     29 H4C2        -6.9170    -3.6150    -2.3460 hc         1 SUJ       0.034367
     30 H4C3        -7.5530    -3.3080    -0.7250 hc         1 SUJ       0.034367
     31 HB          -6.1950    -2.0750     0.7590 ho         1 SUJ       0.441000
@<TRIPOS>BOND
     1     1     2 1   
     2     1    17 1   
     3     1    18 1   
     4     2     3 1   
     5     2     5 1   
     6     2    19 1   
     7     3     4 2   
     8     3     9 1   
     9     5     6 1   
    10     5    20 1   
    11     5    21 1   
    12     6     7 1   
    13     6    22 1   
    14     6    23 1   
    15     7     8 1   
    16     7     9 1   
    17     7    24 1   
    18     8    25 1   
    19     9    10 1   
    20    10    11 1   
    21    10    14 1   
    22    10    26 1   
    23    11    12 1   
    24    11    13 1   
    25    11    27 1   
    26    12    28 1   
    27    12    29 1   
    28    12    30 1   
    29    13    31 1   
    30    14    15 1   
    31    14    16 1   
@<TRIPOS>SUBSTRUCTURE
     1 SUJ         1 TEMP              0 ****  ****    0 ROOT
