@<TRIPOS>MOLECULE
SUM
   69    70     1     0     0
SMALL
bcc


@<TRIPOS>ATOM
      1 C1          -0.1540     0.1700    -3.2290 c6         1 SUM       0.323900
      2 C2          -0.1130    -1.3560    -3.3500 c6         1 SUM       0.104100
      3 C3           0.8760    -1.9340    -2.3460 c6         1 SUM       0.110100
      4 C4           2.2380    -1.2670    -2.5120 c6         1 SUM       0.126100
      5 C5           2.0800     0.2470    -2.3950 c6         1 SUM       0.142100
      6 C6           3.3670     0.9950    -2.6670 c3         1 SUM       0.146400
      7 O1          -0.7230     0.5020    -2.0010 os         1 SUM      -0.474600
      8 O2          -1.3700    -1.9530    -3.1550 oh         1 SUM      -0.608800
      9 O3           1.0630    -3.3200    -2.5340 oh         1 SUM      -0.605800
     10 O4           3.1440    -1.6870    -1.5230 oh         1 SUM      -0.593800
     11 O5           1.1330     0.7030    -3.3520 os         1 SUM      -0.424600
     12 O6           3.1280     2.3660    -2.4470 oh         1 SUM      -0.596800
     13 C11         -1.1730     2.8490    -2.6310 c3         1 SUM       0.141400
     14 C12         -1.6120     1.5990    -1.8710 c5         1 SUM       0.332600
     15 C13         -3.0410     1.1400    -2.1830 c5         1 SUM       0.056100
     16 C14         -3.3650     0.3160    -0.9380 c5         1 SUM       0.079100
     17 C15         -2.6100     1.0680     0.1620 c5         1 SUM       0.152100
     18 O11          0.0710     3.3480    -2.2260 oh         1 SUM      -0.573800
     19 O13         -3.1080     0.4400    -3.3990 oh         1 SUM      -0.606800
     20 O14         -4.7290     0.2330    -0.6150 oh         1 SUM      -0.583800
     21 O15         -1.6510     1.8870    -0.5160 os         1 SUM      -0.362600
     22 C21         -1.3230     0.8130     2.3790 c3         1 SUM       0.157100
     23 C22         -0.7480    -0.2310     3.3350 c3         1 SUM      -0.100400
     24 C23         -0.1420     0.3600     4.6010 c3         1 SUM      -0.069400
     25 C24          0.3350    -0.7050     5.5820 c3         1 SUM      -0.075400
     26 C25          1.0040    -0.1190     6.8190 c3         1 SUM      -0.075400
     27 C26          1.4490    -1.1750     7.8230 c3         1 SUM      -0.075400
     28 C27          2.1570    -0.5900     9.0390 c3         1 SUM      -0.075400
     29 C28          2.5820    -1.6510    10.0460 c3         1 SUM      -0.088100
     30 O21         -0.3570     1.7840     2.0220 oh         1 SUM      -0.589800
     31 CM          -1.9560     0.1380     1.1670 c3         1 SUM      -0.125400
     32 H1          -0.7140     0.5850    -4.0710 h2         1 SUM       0.083700
     33 H2           0.2610    -1.5720    -4.3630 h1         1 SUM       0.062700
     34 H3           0.5120    -1.7290    -1.3280 h1         1 SUM       0.061700
     35 H4           2.6180    -1.5000    -3.5200 h1         1 SUM       0.050700
     36 H5           1.7400     0.4880    -1.3790 h1         1 SUM       0.081700
     37 H61          4.1470     0.6100    -2.0020 h1         1 SUM       0.037700
     38 H62          3.6900     0.7960    -3.6970 h1         1 SUM       0.037700
     39 HO2         -2.0670    -1.3110    -3.3530 ho         1 SUM       0.430000
     40 HO3          0.2910    -3.7820    -2.1940 ho         1 SUM       0.424000
     41 HO4          3.2120    -2.6460    -1.5690 ho         1 SUM       0.426000
     42 HO6          3.8870     2.8630    -2.7670 ho         1 SUM       0.410000
     43 H111        -1.2190     2.6640    -3.7110 h1         1 SUM       0.052200
     44 H112        -1.9170     3.6220    -2.4260 h1         1 SUM       0.052200
     45 H13         -3.6950     2.0230    -2.2030 h1         1 SUM       0.067700
     46 H14         -2.9340    -0.6860    -1.0700 h1         1 SUM       0.065700
     47 H15         -3.3090     1.7380     0.6770 h1         1 SUM       0.086700
     48 HO11         0.7730     2.7800    -2.5660 ho         1 SUM       0.434000
     49 HO13        -4.0310     0.3300    -3.6500 ho         1 SUM       0.420000
     50 HO14        -5.1210    -0.4920    -1.1100 ho         1 SUM       0.410000
     51 H21         -2.1100     1.3620     2.9130 h1         1 SUM       0.061700
     52 H221         0.0050    -0.8300     2.8090 hc         1 SUM       0.037200
     53 H222        -1.5530    -0.9230     3.6060 hc         1 SUM       0.037200
     54 H231        -0.8820     0.9980     5.0970 hc         1 SUM       0.047200
     55 H232         0.6960     1.0120     4.3380 hc         1 SUM       0.047200
     56 H241         1.0360    -1.3790     5.0770 hc         1 SUM       0.034200
     57 H242        -0.5160    -1.3240     5.8870 hc         1 SUM       0.034200
     58 H251         0.3170     0.5790     7.3100 hc         1 SUM       0.038700
     59 H252         1.8710     0.4760     6.5110 hc         1 SUM       0.038700
     60 H261         2.1150    -1.8910     7.3280 hc         1 SUM       0.036200
     61 H262         0.5770    -1.7510     8.1540 hc         1 SUM       0.036200
     62 H271         1.4990     0.1350     9.5280 hc         1 SUM       0.036700
     63 H272         3.0350    -0.0280     8.7080 hc         1 SUM       0.036700
     64 H281         3.1070    -1.2110    10.8950 hc         1 SUM       0.030700
     65 H282         1.7180    -2.1920    10.4370 hc         1 SUM       0.030700
     66 H283         3.2500    -2.3830     9.5890 hc         1 SUM       0.030700
     67 HO21         0.0950     1.4910     1.2250 ho         1 SUM       0.415000
     68 HCM1        -1.2170    -0.4870     0.6510 hc         1 SUM       0.056700
     69 HCM2        -2.7290    -0.5450     1.5330 hc         1 SUM       0.056700
@<TRIPOS>BOND
     1     1     2 1   
     2     1     7 1   
     3     1    11 1   
     4     1    32 1   
     5     2     3 1   
     6     2     8 1   
     7     2    33 1   
     8     3     4 1   
     9     3     9 1   
    10     3    34 1   
    11     4     5 1   
    12     4    10 1   
    13     4    35 1   
    14     5     6 1   
    15     5    11 1   
    16     5    36 1   
    17     6    12 1   
    18     6    37 1   
    19     6    38 1   
    20     7    14 1   
    21     8    39 1   
    22     9    40 1   
    23    10    41 1   
    24    12    42 1   
    25    13    14 1   
    26    13    18 1   
    27    13    43 1   
    28    13    44 1   
    29    14    15 1   
    30    14    21 1   
    31    15    16 1   
    32    15    19 1   
    33    15    45 1   
    34    16    17 1   
    35    16    20 1   
    36    16    46 1   
    37    17    21 1   
    38    17    31 1   
    39    17    47 1   
    40    18    48 1   
    41    19    49 1   
    42    20    50 1   
    43    22    23 1   
    44    22    30 1   
    45    22    31 1   
    46    22    51 1   
    47    23    24 1   
    48    23    52 1   
    49    23    53 1   
    50    24    25 1   
    51    24    54 1   
    52    24    55 1   
    53    25    26 1   
    54    25    56 1   
    55    25    57 1   
    56    26    27 1   
    57    26    58 1   
    58    26    59 1   
    59    27    28 1   
    60    27    60 1   
    61    27    61 1   
    62    28    29 1   
    63    28    62 1   
    64    28    63 1   
    65    29    64 1   
    66    29    65 1   
    67    29    66 1   
    68    30    67 1   
    69    31    68 1   
    70    31    69 1   
@<TRIPOS>SUBSTRUCTURE
     1 SUM         1 TEMP              0 ****  ****    0 ROOT
