@<TRIPOS>MOLECULE
SUM
   69    70     1     0     0
SMALL
No Charge or Current Charge


@<TRIPOS>ATOM
      1 C1          -0.1360     0.3210    -3.1820 c6         1 SUM       0.370300
      2 C2          -0.2030    -1.1980    -3.5480 c6         1 SUM       0.127300
      3 C3           0.7150    -2.0000    -2.5830 c6         1 SUM       0.133300
      4 C4           2.1580    -1.4150    -2.6040 c6         1 SUM       0.149300
      5 C5           2.1020     0.1040    -2.2450 c6         1 SUM       0.165300
      6 C6           3.5020     0.7940    -2.3010 c3         1 SUM       0.169600
      7 O1          -0.7020     0.5930    -1.8870 os         1 SUM      -0.521000
      8 O2          -1.5590    -1.7130    -3.5090 oh         1 SUM      -0.731000
      9 O3           0.7220    -3.3940    -2.9430 oh         1 SUM      -0.668000
     10 O4           2.9930    -2.1600    -1.6990 oh         1 SUM      -0.716000
     11 O5           1.2200     0.8050    -3.1690 os         1 SUM      -0.471000
     12 O6           3.4360     2.2140    -2.0530 oh         1 SUM      -0.719000
     13 C11         -1.1690     2.9870    -2.4670 c3         1 SUM       0.164600
     14 C12         -1.6710     1.6680    -1.7770 c5         1 SUM       0.379000
     15 C13         -3.0770     1.1260    -2.2300 c5         1 SUM       0.079300
     16 C14         -3.3460     0.1070    -1.0820 c5         1 SUM       0.102300
     17 C15         -2.7520     0.8620     0.1610 c5         1 SUM       0.175300
     18 O11          0.1830     3.3310    -2.0800 oh         1 SUM      -0.696000
     19 O13         -3.1420     0.5110    -3.5390 oh         1 SUM      -0.729000
     20 O14         -4.7390    -0.2170    -0.9580 oh         1 SUM      -0.706000
     21 O15         -1.8870     1.9010    -0.3720 os         1 SUM      -0.409000
     22 C21         -1.3470     0.6650     2.3530 c3         1 SUM       0.180300
     23 C22         -0.6660    -0.3210     3.3350 c3         1 SUM      -0.100400
     24 C23         -0.1440     0.3390     4.6340 c3         1 SUM      -0.069400
     25 C24          0.4860    -0.6750     5.6140 c3         1 SUM      -0.075400
     26 C25          1.0070    -0.0180     6.9120 c3         1 SUM      -0.075400
     27 C26          1.6380    -1.0320     7.8910 c3         1 SUM      -0.075400
     28 C27          2.1590    -0.3760     9.1890 c3         1 SUM      -0.075400
     29 C28          2.7870    -1.3870    10.1660 c3         1 SUM      -0.088100
     30 O21         -0.3860     1.6150     1.8910 oh         1 SUM      -0.652000
     31 CM          -1.9560    -0.0530     1.1270 c3         1 SUM      -0.125400
     32 H1          -0.6910     0.8620    -3.9630 h2         1 SUM       0.083700
     33 H2           0.1980    -1.3010    -4.5670 h1         1 SUM       0.062700
     34 H3           0.3140    -1.8840    -1.5640 h1         1 SUM       0.061700
     35 H4           2.5520    -1.5070    -3.6280 h1         1 SUM       0.050700
     36 H5           1.7150     0.2170    -1.2210 h1         1 SUM       0.081700
     37 H61          4.1530     0.3130    -1.5590 h1         1 SUM       0.037700
     38 H62          3.9370     0.6030    -3.2910 h1         1 SUM       0.037700
     39 HO2         -2.1640    -0.9140    -3.4990 ho         1 SUM       0.529000
     40 HO3         -0.2060    -3.5840    -3.2170 ho         1 SUM       0.463000
     41 HO4          2.7000    -3.0980    -1.8070 ho         1 SUM       0.525000
     42 HO6          4.3510     2.5660    -2.1570 ho         1 SUM       0.509000
     43 H111        -1.2410     2.8750    -3.5570 h1         1 SUM       0.052200
     44 H112        -1.8570     3.7980    -2.1900 h1         1 SUM       0.052200
     45 H13         -3.8030     1.9500    -2.1690 h1         1 SUM       0.067700
     46 H14         -2.7690    -0.8130    -1.2550 h1         1 SUM       0.065700
     47 H15         -3.5550     1.3540     0.7270 h1         1 SUM       0.086700
     48 HO11         0.7320     2.5200    -2.2470 ho         1 SUM       0.533000
     49 HO13        -3.8580     0.9680    -4.0470 ho         1 SUM       0.519000
     50 HO14        -5.0130    -0.6170    -1.8170 ho         1 SUM       0.509000
     51 H21         -2.1600     1.1780     2.8870 h1         1 SUM       0.061700
     52 H221         0.1640    -0.8260     2.8260 hc         1 SUM       0.037200
     53 H222        -1.3890    -1.1010     3.6070 hc         1 SUM       0.037200
     54 H231        -0.9740     0.8550     5.1340 hc         1 SUM       0.047200
     55 H232         0.6020     1.1030     4.3820 hc         1 SUM       0.047200
     56 H241         1.3150    -1.1910     5.1140 hc         1 SUM       0.034200
     57 H242        -0.2580    -1.4390     5.8720 hc         1 SUM       0.034200
     58 H251         0.1780     0.4980     7.4120 hc         1 SUM       0.038700
     59 H252         1.7520     0.7450     6.6550 hc         1 SUM       0.038700
     60 H261         2.4670    -1.5490     7.3910 hc         1 SUM       0.036200
     61 H262         0.8930    -1.7960     8.1480 hc         1 SUM       0.036200
     62 H271         1.3320     0.1400     9.6930 hc         1 SUM       0.036700
     63 H272         2.9050     0.3870     8.9360 hc         1 SUM       0.036700
     64 H281         3.1420    -0.8760    11.0690 hc         1 SUM       0.030700
     65 H282         2.0530    -2.1450    10.4660 hc         1 SUM       0.030700
     66 H283         3.6410    -1.8960     9.7030 hc         1 SUM       0.030700
     67 HO21        -0.7100     1.8910     0.9990 ho         1 SUM       0.454000
     68 HCM1        -1.1560    -0.5670     0.5790 hc         1 SUM       0.056700
     69 HCM2        -2.6280    -0.8400     1.4880 hc         1 SUM       0.056700
@<TRIPOS>BOND
     1     1     2 1   
     2     1     7 1   
     3     1    11 1   
     4     1    32 1   
     5     2     3 1   
     6     2     8 1   
     7     2    33 1   
     8     3     4 1   
     9     3     9 1   
    10     3    34 1   
    11     4     5 1   
    12     4    10 1   
    13     4    35 1   
    14     5     6 1   
    15     5    11 1   
    16     5    36 1   
    17     6    12 1   
    18     6    37 1   
    19     6    38 1   
    20     7    14 1   
    21     8    39 1   
    22     9    40 1   
    23    10    41 1   
    24    12    42 1   
    25    13    14 1   
    26    13    18 1   
    27    13    43 1   
    28    13    44 1   
    29    14    15 1   
    30    14    21 1   
    31    15    16 1   
    32    15    19 1   
    33    15    45 1   
    34    16    17 1   
    35    16    20 1   
    36    16    46 1   
    37    17    21 1   
    38    17    31 1   
    39    17    47 1   
    40    18    48 1   
    41    19    49 1   
    42    20    50 1   
    43    22    23 1   
    44    22    30 1   
    45    22    31 1   
    46    22    51 1   
    47    23    24 1   
    48    23    52 1   
    49    23    53 1   
    50    24    25 1   
    51    24    54 1   
    52    24    55 1   
    53    25    26 1   
    54    25    56 1   
    55    25    57 1   
    56    26    27 1   
    57    26    58 1   
    58    26    59 1   
    59    27    28 1   
    60    27    60 1   
    61    27    61 1   
    62    28    29 1   
    63    28    62 1   
    64    28    63 1   
    65    29    64 1   
    66    29    65 1   
    67    29    66 1   
    68    30    67 1   
    69    31    68 1   
    70    31    69 1   
@<TRIPOS>SUBSTRUCTURE
     1 SUM         1 TEMP              0 ****  ****    0 ROOT
