@<TRIPOS>MOLECULE
SUO
   30    29     1     0     0
SMALL
No Charge or Current Charge


@<TRIPOS>ATOM
      1 N            0.3330    -0.9390     0.4170 ns         1 SUO      -0.482900
      2 CA           1.7750    -1.2290     0.2240 c3         1 SUO      -0.025300
      3 CB           2.6620     0.0160     0.4960 c3         1 SUO      -0.074400
      4 CG           2.4070     1.2110    -0.4530 c3         1 SUO      -0.080400
      5 CD           3.3670     2.3910    -0.1950 c3         1 SUO       0.141800
      6 NE           3.1100     3.5150    -1.1120 n8         1 SUO      -0.995200
      7 C            2.2130    -2.4420     1.1080 c          1 SUO       0.719000
      8 O            2.7250    -3.4060     0.5550 o          1 SUO      -0.734500
      9 OXT         -0.2460    -0.5620    -1.7610 o          1 SUO      -0.640100
     10 O2           1.9540    -2.4200     2.3050 o          1 SUO      -0.734500
     11 CW          -1.9920    -0.3280    -0.0950 c3         1 SUO      -0.134400
     12 CX          -2.3370     1.1880    -0.1240 c3         1 SUO      -0.193400
     13 CY          -3.7750     1.4250     0.3700 c          1 SUO       0.714000
     14 OD1         -3.9550     1.5860     1.5680 o          1 SUO      -0.759500
     15 OD2         -4.6810     1.3860    -0.4480 o          1 SUO      -0.759500
     16 CV          -0.5600    -0.6020    -0.5790 c          1 SUO       0.597100
     17 HN          -0.0340    -0.9750     1.3610 hn         1 SUO       0.288500
     18 HA           1.9290    -1.5320    -0.8200 h1         1 SUO       0.049700
     19 HB1          3.7130    -0.2830     0.4060 hc         1 SUO       0.037200
     20 HB2          2.5170     0.3430     1.5330 hc         1 SUO       0.037200
     21 HG1          1.3740     1.5600    -0.3320 hc         1 SUO       0.044200
     22 HG2          2.5160     0.8740    -1.4920 hc         1 SUO       0.044200
     23 HD1A         4.4060     2.0600    -0.3310 h1         1 SUO       0.018200
     24 HD2          3.2470     2.7480     0.8370 h1         1 SUO       0.018200
     25 HNE1         3.8140     4.2440    -0.9520 hn         1 SUO       0.374000
     26 HNE2         3.2920     3.2060    -2.0740 hn         1 SUO       0.374000
     27 HW1         -2.6920    -0.8550    -0.7540 hc         1 SUO       0.049700
     28 HW2         -2.1120    -0.6870     0.9340 hc         1 SUO       0.049700
     29 HX1         -1.6170     1.6700     0.5490 hc         1 SUO       0.028200
     30 HX2         -2.2380     1.5000    -1.1710 hc         1 SUO       0.028200
@<TRIPOS>BOND
     1     1     2 1   
     2     1    16 1   
     3     1    17 1   
     4     2     3 1   
     5     2     7 1   
     6     2    18 1   
     7     3     4 1   
     8     3    19 1   
     9     3    20 1   
    10     4     5 1   
    11     4    21 1   
    12     4    22 1   
    13     5     6 1   
    14     5    23 1   
    15     5    24 1   
    16     6    25 1   
    17     6    26 1   
    18     7     8 1   
    19     7    10 1   
    20     9    16 2   
    21    11    12 1   
    22    11    16 1   
    23    11    27 1   
    24    11    28 1   
    25    12    13 1   
    26    12    29 1   
    27    12    30 1   
    28    13    14 1   
    29    13    15 1   
@<TRIPOS>SUBSTRUCTURE
     1 SUO         1 TEMP              0 ****  ****    0 ROOT
