@<TRIPOS>MOLECULE
SUO
   30    29     1     0     0
SMALL
bcc


@<TRIPOS>ATOM
      1 N            0.3920    -0.1730     0.1820 ns         1 SUO      -0.549900
      2 CA           1.6260    -0.8070    -0.2190 c3         1 SUO      -0.025300
      3 CB           2.8150     0.0190     0.2710 c3         1 SUO      -0.074400
      4 CG           2.8190     1.4630    -0.2170 c3         1 SUO      -0.080400
      5 CD           4.0740     2.2100     0.2070 c3         1 SUO       0.141800
      6 NE           4.0270     3.6000    -0.2250 n8         1 SUO      -0.884800
      7 C            1.7550    -2.2630     0.2980 c          1 SUO       0.929600
      8 O            2.5960    -2.9620    -0.3020 o          1 SUO      -0.839800
      9 OXT         -0.9170    -1.4420    -1.1350 o          1 SUO      -0.640100
     10 O2           1.0580    -2.5930     1.2720 o          1 SUO      -0.839800
     11 CW          -2.0010     0.0550     0.4060 c3         1 SUO      -0.134400
     12 CX          -3.1620     0.2680    -0.5500 c3         1 SUO      -0.193400
     13 CY          -4.4220     0.8790     0.0860 c          1 SUO       0.924600
     14 OD1         -5.2750     1.3210    -0.7120 o          1 SUO      -0.864800
     15 OD2         -4.5100     0.8680     1.3300 o          1 SUO      -0.864800
     16 CV          -0.8040    -0.5960    -0.2540 c          1 SUO       0.664100
     17 HN           0.4110     0.4460     0.9760 hn         1 SUO       0.288500
     18 HA           1.6620    -0.8290    -1.3120 h1         1 SUO       0.049700
     19 HB1          3.7250    -0.4810    -0.0670 hc         1 SUO       0.037200
     20 HB2          2.8440     0.0010     1.3670 hc         1 SUO       0.037200
     21 HG1          1.9470     2.0020     0.1640 hc         1 SUO       0.044200
     22 HG2          2.7390     1.4780    -1.3100 hc         1 SUO       0.044200
     23 HD1A         4.9550     1.6650    -0.1640 h1         1 SUO       0.018200
     24 HD2          4.1450     2.1950     1.2990 h1         1 SUO       0.018200
     25 HNE1         4.8500     4.0850     0.1070 hn         1 SUO       0.318800
     26 HNE2         4.0820     3.6360    -1.2360 hn         1 SUO       0.318800
     27 HW1         -2.3160    -0.5900     1.2320 hc         1 SUO       0.049700
     28 HW2         -1.7060     1.0010     0.8650 hc         1 SUO       0.049700
     29 HX1         -2.8480     0.8950    -1.3900 hc         1 SUO       0.028200
     30 HX2         -3.4460    -0.6900    -0.9980 hc         1 SUO       0.028200
@<TRIPOS>BOND
     1     1     2 1   
     2     1    16 1   
     3     1    17 1   
     4     2     3 1   
     5     2     7 1   
     6     2    18 1   
     7     3     4 1   
     8     3    19 1   
     9     3    20 1   
    10     4     5 1   
    11     4    21 1   
    12     4    22 1   
    13     5     6 1   
    14     5    23 1   
    15     5    24 1   
    16     6    25 1   
    17     6    26 1   
    18     7     8 1   
    19     7    10 1   
    20     9    16 2   
    21    11    12 1   
    22    11    16 1   
    23    11    27 1   
    24    11    28 1   
    25    12    13 1   
    26    12    29 1   
    27    12    30 1   
    28    13    14 1   
    29    13    15 1   
@<TRIPOS>SUBSTRUCTURE
     1 SUO         1 TEMP              0 ****  ****    0 ROOT
