@<TRIPOS>MOLECULE
SUQ
   25    27     1     0     0
SMALL
No Charge or Current Charge


@<TRIPOS>ATOM
      1 C02         29.4510    67.2750    71.9770 ca         1 SUQ       0.143000
      2 C03         28.4220    67.7150    71.1280 ca         1 SUQ      -0.115500
      3 C04         27.5000    68.6750    71.5800 ca         1 SUQ      -0.055000
      4 C05         27.6030    69.1900    72.8890 ca         1 SUQ      -0.165000
      5 C06         28.6440    68.7560    73.7300 ca         1 SUQ      -0.055000
      6 C07         29.5640    67.7960    73.2750 ca         1 SUQ      -0.115500
      7 C09         25.0650    69.4060    73.0840 cc         1 SUQ       0.356300
      8 C12         22.0690    69.4070    70.9610 c          1 SUQ       0.542800
      9 C16         22.9120    67.9430    72.4770 cd         1 SUQ      -0.086000
     10 C17         23.7870    67.3900    73.4610 cd         1 SUQ      -0.056000
     11 C18         24.8810    68.1580    73.7650 cc         1 SUQ      -0.110000
     12 N10         24.2530    69.9560    72.1830 nd         1 SUQ      -0.366800
     13 N11         23.1260    69.1800    71.8570 n          1 SUQ       0.079000
     14 N14         21.3260    68.2750    71.1350 ns         1 SUQ      -0.368400
     15 N15         21.8010    67.3750    72.0370 nc         1 SUQ      -0.176600
     16 O13         21.8550    70.3560    70.2170 o          1 SUQ      -0.510000
     17 S08         26.4440    70.4210    73.4990 ss         1 SUQ      -0.086300
     18 Cl1         30.6040    66.0740    71.4090 cl         1 SUQ      -0.187000
     19 H1          28.3430    67.3150    70.1200 ha         1 SUQ       0.136000
     20 H2          26.7150    69.0180    70.9080 ha         1 SUQ       0.134000
     21 H3          28.7360    69.1580    74.7380 ha         1 SUQ       0.134000
     22 H4          30.3650    67.4570    73.9280 ha         1 SUQ       0.136000
     23 H5          23.5990    66.4330    73.9370 ha         1 SUQ       0.151000
     24 H6          25.6100    67.8390    74.5010 ha         1 SUQ       0.143000
     25 H7          20.4640    68.1240    70.6140 hn         1 SUQ       0.496000
@<TRIPOS>BOND
     1     1     2 ar  
     2     1     6 ar  
     3     1    18 1   
     4     2     3 ar  
     5     2    19 1   
     6     3     4 ar  
     7     3    20 1   
     8     4     5 ar  
     9     4    17 1   
    10     5     6 ar  
    11     5    21 1   
    12     6    22 1   
    13     7    11 1   
    14     7    12 2   
    15     7    17 1   
    16     8    13 1   
    17     8    14 1   
    18     8    16 2   
    19     9    10 1   
    20     9    13 1   
    21     9    15 2   
    22    10    11 2   
    23    10    23 1   
    24    11    24 1   
    25    12    13 1   
    26    14    15 1   
    27    14    25 1   
@<TRIPOS>SUBSTRUCTURE
     1 SUQ         1 TEMP              0 ****  ****    0 ROOT
