@<TRIPOS>MOLECULE
SUQ
   25    27     1     0     0
SMALL
abcg2


@<TRIPOS>ATOM
      1 C02         29.8340    67.3140    72.4400 ca         1 SUQ       0.143000
      2 C03         29.0680    67.5570    71.3080 ca         1 SUQ      -0.115500
      3 C04         28.0170    68.4550    71.3840 ca         1 SUQ      -0.055000
      4 C05         27.7220    69.0830    72.5910 ca         1 SUQ      -0.165000
      5 C06         28.4960    68.8290    73.7160 ca         1 SUQ      -0.055000
      6 C07         29.5620    67.9450    73.6440 ca         1 SUQ      -0.115500
      7 C09         24.9750    69.2790    72.5110 cc         1 SUQ       0.356300
      8 C12         21.5920    69.7190    71.5890 c          1 SUQ       0.542800
      9 C16         22.6540    67.8880    72.3490 cd         1 SUQ      -0.086000
     10 C17         23.8020    67.1940    72.8200 cd         1 SUQ      -0.056000
     11 C18         24.9530    67.8900    72.9040 cc         1 SUQ      -0.110000
     12 N10         23.9470    69.9210    72.0720 nd         1 SUQ      -0.366800
     13 N11         22.8170    69.2130    72.0180 n          1 SUQ       0.079000
     14 N14         20.8050    68.6190    71.7100 ns         1 SUQ      -0.368400
     15 N15         21.4300    67.5070    72.1700 nc         1 SUQ      -0.176600
     16 O13         21.3360    70.8440    71.2150 o          1 SUQ      -0.510000
     17 S08         26.4170    70.2760    72.6930 ss         1 SUQ      -0.086300
     18 CL1         31.1550    66.2030    72.3470 cl         1 SUQ      -0.187000
     19 H1          29.2940    67.0630    70.3730 ha         1 SUQ       0.136000
     20 H2          27.4270    68.6630    70.5010 ha         1 SUQ       0.134000
     21 H3          28.2680    69.3150    74.6560 ha         1 SUQ       0.134000
     22 H4          30.1650    67.7480    74.5190 ha         1 SUQ       0.136000
     23 H5          23.7270    66.1540    73.1070 ha         1 SUQ       0.151000
     24 H6          25.8550    67.4220    73.2720 ha         1 SUQ       0.143000
     25 H7          19.8190    68.5890    71.5010 hn         1 SUQ       0.496000
@<TRIPOS>BOND
     1     1     2 ar  
     2     1     6 ar  
     3     1    18 1   
     4     2     3 ar  
     5     2    19 1   
     6     3     4 ar  
     7     3    20 1   
     8     4     5 ar  
     9     4    17 1   
    10     5     6 ar  
    11     5    21 1   
    12     6    22 1   
    13     7    11 1   
    14     7    12 2   
    15     7    17 1   
    16     8    13 1   
    17     8    14 1   
    18     8    16 2   
    19     9    10 1   
    20     9    13 1   
    21     9    15 2   
    22    10    11 2   
    23    10    23 1   
    24    11    24 1   
    25    12    13 1   
    26    14    15 1   
    27    14    25 1   
@<TRIPOS>SUBSTRUCTURE
     1 SUQ         1 TEMP              0 ****  ****    0 ROOT
