@<TRIPOS>MOLECULE
SUT
   28    30     1     0     0
SMALL
No Charge or Current Charge


@<TRIPOS>ATOM
      1 C01         31.6240    66.1420    71.0910 c3         1 SUT      -0.048800
      2 C02         30.5260    66.9030    71.8190 ca         1 SUT      -0.084300
      3 C03         30.3130    66.6990    73.1950 ca         1 SUT      -0.085000
      4 C04         29.3050    67.4100    73.8680 ca         1 SUT      -0.115000
      5 C05         28.5000    68.3240    73.1680 ca         1 SUT      -0.072000
      6 C06         28.6990    68.5260    71.7880 ca         1 SUT      -0.154000
      7 C07         29.7190    67.8230    71.1210 ca         1 SUT      -0.066000
      8 C09         26.2050    68.9160    71.4030 cc         1 SUT       0.362300
      9 C12         23.1360    69.6530    73.2770 c          1 SUT       0.544800
     10 C16         23.8950    67.8180    72.1790 cd         1 SUT      -0.080000
     11 C17         24.7530    66.9840    71.3990 cd         1 SUT      -0.059000
     12 C18         25.9300    67.5670    71.0040 cc         1 SUT      -0.105000
     13 N10         25.4140    69.7230    72.1060 nd         1 SUT      -0.364800
     14 N11         24.2020    69.1400    72.5230 n          1 SUT       0.073000
     15 N14         22.2930    68.5790    73.3110 ns         1 SUT      -0.375400
     16 N15         22.7160    67.4610    72.6620 nc         1 SUT      -0.178600
     17 O13         22.9830    70.7600    73.7780 o          1 SUT      -0.515000
     18 S08         27.6930    69.6900    70.8610 ss         1 SUT      -0.100300
     19 H1          32.5610    66.7100    71.0950 hc         1 SUT       0.047033
     20 H2          31.8180    65.1710    71.5620 hc         1 SUT       0.047033
     21 H3          31.3520    65.9510    70.0460 hc         1 SUT       0.047033
     22 H4          30.9330    65.9950    73.7460 ha         1 SUT       0.117000
     23 H5          29.1490    67.2540    74.9330 ha         1 SUT       0.120000
     24 H6          27.7310    68.8770    73.7040 ha         1 SUT       0.129000
     25 H7          29.8810    67.9880    70.0580 ha         1 SUT       0.127000
     26 H8          24.4930    65.9640    71.1350 ha         1 SUT       0.150000
     27 H9          26.6550    67.0290    70.4040 ha         1 SUT       0.145000
     28 H10         21.3990    68.6240    73.7960 hn         1 SUT       0.495000
@<TRIPOS>BOND
     1     1     2 1   
     2     1    19 1   
     3     1    20 1   
     4     1    21 1   
     5     2     3 ar  
     6     2     7 ar  
     7     3     4 ar  
     8     3    22 1   
     9     4     5 ar  
    10     4    23 1   
    11     5     6 ar  
    12     5    24 1   
    13     6     7 ar  
    14     6    18 1   
    15     7    25 1   
    16     8    12 1   
    17     8    13 2   
    18     8    18 1   
    19     9    14 1   
    20     9    15 1   
    21     9    17 2   
    22    10    11 1   
    23    10    14 1   
    24    10    16 2   
    25    11    12 2   
    26    11    26 1   
    27    12    27 1   
    28    13    14 1   
    29    15    16 1   
    30    15    28 1   
@<TRIPOS>SUBSTRUCTURE
     1 SUT         1 TEMP              0 ****  ****    0 ROOT
