@<TRIPOS>MOLECULE
SUT
   28    30     1     0     0
SMALL
abcg2


@<TRIPOS>ATOM
      1 C01         31.5580    66.2930    70.6060 c3         1 SUT      -0.048800
      2 C02         30.6280    66.9030    71.6200 ca         1 SUT      -0.084300
      3 C03         30.6970    66.5460    72.9670 ca         1 SUT      -0.085000
      4 C04         29.8580    67.1320    73.9090 ca         1 SUT      -0.115000
      5 C05         28.9330    68.0920    73.5240 ca         1 SUT      -0.072000
      6 C06         28.8410    68.4400    72.1760 ca         1 SUT      -0.154000
      7 C07         29.6800    67.8520    71.2340 ca         1 SUT      -0.066000
      8 C09         26.1230    68.9090    71.9650 cc         1 SUT       0.362300
      9 C12         22.7310    69.8610    72.5020 c          1 SUT       0.544800
     10 C16         23.6570    67.8020    72.3160 cd         1 SUT      -0.080000
     11 C17         24.7530    66.9190    72.1230 cd         1 SUT      -0.059000
     12 C18         25.9740    67.4710    71.9480 cc         1 SUT      -0.105000
     13 N10         25.1390    69.7390    72.1460 nd         1 SUT      -0.364800
     14 N11         23.9280    69.1600    72.3020 n          1 SUT       0.073000
     15 N14         21.8410    68.8330    72.6170 ns         1 SUT      -0.375400
     16 N15         22.3840    67.5750    72.5070 nc         1 SUT      -0.178600
     17 O13         22.5600    71.0690    72.5550 o          1 SUT      -0.515000
     18 S08         27.6820    69.6840    71.6430 ss         1 SUT      -0.100300
     19 H1          32.4660    66.8960    70.5080 hc         1 SUT       0.047033
     20 H2          31.8600    65.2890    70.9030 hc         1 SUT       0.047033
     21 H3          31.0910    66.2420    69.6220 hc         1 SUT       0.047033
     22 H4          31.4160    65.7990    73.2820 ha         1 SUT       0.117000
     23 H5          29.9280    66.8420    74.9500 ha         1 SUT       0.120000
     24 H6          28.2830    68.5600    74.2520 ha         1 SUT       0.129000
     25 H7          29.5860    68.1250    70.1900 ha         1 SUT       0.127000
     26 H8          24.5870    65.8510    72.1100 ha         1 SUT       0.150000
     27 H9          26.8440    66.8530    71.7830 ha         1 SUT       0.145000
     28 H10         20.8500    68.9420    72.7700 hn         1 SUT       0.495000
@<TRIPOS>BOND
     1     1     2 1   
     2     1    19 1   
     3     1    20 1   
     4     1    21 1   
     5     2     3 ar  
     6     2     7 ar  
     7     3     4 ar  
     8     3    22 1   
     9     4     5 ar  
    10     4    23 1   
    11     5     6 ar  
    12     5    24 1   
    13     6     7 ar  
    14     6    18 1   
    15     7    25 1   
    16     8    12 1   
    17     8    13 2   
    18     8    18 1   
    19     9    14 1   
    20     9    15 1   
    21     9    17 2   
    22    10    11 1   
    23    10    14 1   
    24    10    16 2   
    25    11    12 2   
    26    11    26 1   
    27    12    27 1   
    28    13    14 1   
    29    15    16 1   
    30    15    28 1   
@<TRIPOS>SUBSTRUCTURE
     1 SUT         1 TEMP              0 ****  ****    0 ROOT
