@<TRIPOS>MOLECULE
SUU
   35    37     1     0     0
SMALL
abcg2


@<TRIPOS>ATOM
      1 C11        -25.4680     6.9350    37.0500 ca         1 SUU      -0.107300
      2 C14        -27.9340     8.2220    37.3200 ca         1 SUU      -0.059000
      3 C15        -26.7750     8.8440    37.7920 cp         1 SUU      -0.145500
      4 C19        -28.0560    11.6330    39.7640 ca         1 SUU       0.133900
      5 C21        -26.0980    12.3640    39.0030 ca         1 SUU       0.124500
      6 C24        -24.6100    11.3100    37.6150 cc         1 SUU      -0.211200
      7 C25        -25.8570    11.1460    38.3070 ca         1 SUU      -0.179800
      8 C04        -24.1390     6.2480    36.8890 c3         1 SUU      -0.013100
      9 C05        -23.5010     6.5050    35.4920 c3         1 SUU      -0.086600
     10 C06        -23.2290     7.9230    35.2900 c1         1 SUU       0.320900
     11 C08        -22.1910     5.7040    35.3780 c          1 SUU       0.606100
     12 C12        -26.6350     6.3370    36.5730 ca         1 SUU      -0.095000
     13 C13        -27.8600     6.9790    36.7080 ca         1 SUU      -0.119000
     14 C16        -25.5490     8.1870    37.6530 ca         1 SUU      -0.071000
     15 C17        -26.8550    10.1710    38.4360 cp         1 SUU       0.220500
     16 C23        -24.1580    12.5650    37.9170 cd         1 SUU      -0.151100
     17 N07        -23.0260     9.0450    35.1400 n1         1 SUU      -0.450000
     18 N09        -22.3110     4.5220    34.7600 nt         1 SUU      -0.604000
     19 N18        -27.9530    10.4440    39.1610 nb         1 SUU      -0.210000
     20 N20        -27.1740    12.6310    39.7370 nb         1 SUU      -0.190000
     21 N22        -25.0510    13.1980    38.7590 na         1 SUU      -0.332400
     22 O10        -21.1500     6.1220    35.8680 o          1 SUU      -0.581100
     23 H1         -28.8860     8.7230    37.4290 ha         1 SUU       0.134000
     24 H3         -24.1140    10.6060    36.9700 ha         1 SUU       0.225000
     25 H4         -24.2580     5.1690    36.9840 hc         1 SUU       0.065700
     26 H5         -23.4370     6.5800    37.6540 hc         1 SUU       0.065700
     27 H6         -24.2070     6.1930    34.7200 hc         1 SUU       0.080700
     28 H7         -26.5820     5.3630    36.1000 ha         1 SUU       0.106000
     29 H8         -28.7610     6.5060    36.3380 ha         1 SUU       0.117000
     30 H9         -24.6490     8.6410    38.0440 ha         1 SUU       0.125000
     31 H10        -23.2630    13.0710    37.5970 h4         1 SUU       0.223000
     32 H11        -21.5130     3.9080    34.7080 hn         1 SUU       0.320500
     33 H12        -23.1820     4.2090    34.3630 hn         1 SUU       0.320500
     34 H13        -24.9600    14.1360    39.1160 hn         1 SUU       0.364000
     35 H2         -28.9590    11.8020    40.3410 h5         1 SUU       0.049100
@<TRIPOS>BOND
     1     1     8 1   
     2     1    12 ar  
     3     1    14 ar  
     4     2     3 ar  
     5     2    13 ar  
     6     2    23 1   
     7     3    14 ar  
     8     3    15 1   
     9     4    19 ar  
    10     4    20 ar  
    11     4    35 1   
    12     5     7 ar  
    13     5    20 ar  
    14     5    21 1   
    15     6     7 1   
    16     6    16 2   
    17     6    24 1   
    18     7    15 ar  
    19     8     9 1   
    20     8    25 1   
    21     8    26 1   
    22     9    10 1   
    23     9    11 1   
    24     9    27 1   
    25    10    17 3   
    26    11    18 1   
    27    11    22 2   
    28    12    13 ar  
    29    12    28 1   
    30    13    29 1   
    31    14    30 1   
    32    15    19 ar  
    33    16    21 1   
    34    16    31 1   
    35    18    32 1   
    36    18    33 1   
    37    21    34 1   
@<TRIPOS>SUBSTRUCTURE
     1 SUU         1 TEMP              0 ****  ****    0 ROOT
