@<TRIPOS>MOLECULE
SUU
   35    37     1     0     0
SMALL
No Charge or Current Charge


@<TRIPOS>ATOM
      1 C11        -25.4710     6.9460    37.0980 ca         1 SUU      -0.107300
      2 C14        -27.9580     8.2520    37.2850 ca         1 SUU      -0.059000
      3 C15        -26.8080     8.8870    37.8210 cp         1 SUU      -0.145500
      4 C19        -28.0770    11.6590    39.8750 ca         1 SUU       0.133900
      5 C21        -26.1030    12.4460    39.0240 ca         1 SUU       0.124500
      6 C24        -24.7240    11.3570    37.5920 cc         1 SUU      -0.211200
      7 C25        -25.9360    11.2510    38.3570 ca         1 SUU      -0.179800
      8 C04        -24.1240     6.2350    36.9990 c3         1 SUU      -0.013100
      9 C05        -23.4720     6.3670    35.5960 c3         1 SUU      -0.086600
     10 C06        -23.1620     7.7580    35.2600 c1         1 SUU       0.320900
     11 C08        -22.2090     5.5090    35.4830 c          1 SUU       0.606100
     12 C12        -26.6260     6.3480    36.5630 ca         1 SUU      -0.095000
     13 C13        -27.8660     6.9980    36.6600 ca         1 SUU      -0.119000
     14 C16        -25.5690     8.2040    37.7250 ca         1 SUU      -0.071000
     15 C17        -26.9060    10.2240    38.4890 cp         1 SUU       0.220500
     16 C23        -24.1860    12.6080    37.8410 cd         1 SUU      -0.151100
     17 N07        -22.9430     8.8690    34.9840 n1         1 SUU      -0.450000
     18 N09        -22.1740     4.6100    34.4740 nt         1 SUU      -0.604000
     19 N18        -27.9950    10.4600    39.2540 nb         1 SUU      -0.210000
     20 N20        -27.1790    12.6690    39.8010 nb         1 SUU      -0.190000
     21 N22        -25.0390    13.2890    38.7400 na         1 SUU      -0.332400
     22 O10        -21.2530     5.6160    36.2340 o          1 SUU      -0.581100
     23 H1         -28.9280     8.7430    37.3450 ha         1 SUU       0.134000
     24 H3         -24.3000    10.6190    36.9130 ha         1 SUU       0.225000
     25 H4         -24.2610     5.1700    37.2260 hc         1 SUU       0.065700
     26 H5         -23.4330     6.6140    37.7640 hc         1 SUU       0.065700
     27 H6         -24.1910     6.0160    34.8460 hc         1 SUU       0.080700
     28 H7         -26.5650     5.3770    36.0760 ha         1 SUU       0.106000
     29 H8         -28.7580     6.5310    36.2480 ha         1 SUU       0.117000
     30 H9         -24.6780     8.6510    38.1580 ha         1 SUU       0.125000
     31 H10        -23.2790    13.0600    37.4420 h4         1 SUU       0.223000
     32 H11        -21.3560     4.0290    34.3610 hn         1 SUU       0.320500
     33 H12        -22.9570     4.5170    33.8430 hn         1 SUU       0.320500
     34 H13        -24.9110    14.2280    39.1060 hn         1 SUU       0.364000
     35 H2         -28.9560    11.8310    40.4940 h5         1 SUU       0.049100
@<TRIPOS>BOND
     1     1     8 1   
     2     1    12 ar  
     3     1    14 ar  
     4     2     3 ar  
     5     2    13 ar  
     6     2    23 1   
     7     3    14 ar  
     8     3    15 1   
     9     4    19 ar  
    10     4    20 ar  
    11     4    35 1   
    12     5     7 ar  
    13     5    20 ar  
    14     5    21 1   
    15     6     7 1   
    16     6    16 2   
    17     6    24 1   
    18     7    15 ar  
    19     8     9 1   
    20     8    25 1   
    21     8    26 1   
    22     9    10 1   
    23     9    11 1   
    24     9    27 1   
    25    10    17 3   
    26    11    18 1   
    27    11    22 2   
    28    12    13 ar  
    29    12    28 1   
    30    13    29 1   
    31    14    30 1   
    32    15    19 ar  
    33    16    21 1   
    34    16    31 1   
    35    18    32 1   
    36    18    33 1   
    37    21    34 1   
@<TRIPOS>SUBSTRUCTURE
     1 SUU         1 TEMP              0 ****  ****    0 ROOT
