@<TRIPOS>MOLECULE
SUV
   55    59     1     0     0
SMALL
No Charge or Current Charge


@<TRIPOS>ATOM
      1 C1          -1.5080     1.4760    -1.0780 cc         1 SUV       0.798500
      2 N1          -0.6430     2.1930    -1.8720 nh         1 SUV      -0.730600
      3 O1          -2.0360     2.0830     0.0540 os         1 SUV      -0.298700
      4 N2          -1.8830     0.2120    -1.3190 nd         1 SUV      -0.666100
      5 O2           2.5230     1.2480     0.9800 o          1 SUV      -0.585100
      6 C3          -2.7080    -0.0280    -0.2430 ca         1 SUV       0.115400
      7 N3           2.1280     1.3840    -1.2940 n          1 SUV      -0.399800
      8 C4          -3.3960    -1.2050     0.0780 ca         1 SUV      -0.070000
      9 N4           1.2560    -1.2300     1.8850 na         1 SUV       0.348800
     10 C5          -4.1800    -1.2160     1.2510 ca         1 SUV       0.119000
     11 N5          -0.0230    -0.7690     1.6830 nc         1 SUV      -0.491800
     12 C6          -4.2650    -0.0650     2.0710 ca         1 SUV      -0.112000
     13 N6           1.7320    -1.3010     3.1750 nc         1 SUV      -0.491800
     14 C7          -3.5620     1.1080     1.7220 ca         1 SUV      -0.076000
     15 C8          -2.7920     1.0770     0.5530 ca         1 SUV       0.006100
     16 C11          0.1400     1.5300    -2.9380 c3         1 SUV       0.215800
     17 C12          1.3520     0.7300    -2.3980 c3         1 SUV       0.076000
     18 C14          2.2730     2.8690    -1.3540 c3         1 SUV       0.125700
     19 C15          1.0810     3.6330    -0.7140 c3         1 SUV      -0.125400
     20 C16         -0.2300     3.5650    -1.5260 c3         1 SUV       0.236800
     21 C17          2.3600     0.6690    -0.0870 c          1 SUV       0.635700
     22 C19          2.5440    -0.8340    -0.1800 ca         1 SUV      -0.127600
     23 C20          2.0210    -1.7040     0.8130 ca         1 SUV       0.062800
     24 C21          2.2340    -3.0930     0.7020 ca         1 SUV      -0.097000
     25 C22          2.9650    -3.6240    -0.3720 ca         1 SUV      -0.091000
     26 C23          3.5010    -2.7710    -1.3490 ca         1 SUV      -0.075300
     27 C24          3.2910    -1.3840    -1.2480 ca         1 SUV      -0.088000
     28 C27         -0.3570    -0.4940     2.9260 cd         1 SUV       0.202900
     29 C28          0.6920    -0.8110     3.8180 cd         1 SUV       0.202900
     30 C29          4.3030    -3.3390    -2.5110 c3         1 SUV      -0.047800
     31 C30          3.6590     3.3750    -0.8920 c3         1 SUV      -0.094100
     32 H1          -3.3230    -2.0840    -0.5550 ha         1 SUV       0.145000
     33 H2          -4.8730    -0.0860     2.9720 ha         1 SUV       0.132000
     34 H3          -3.6110     2.0020     2.3390 ha         1 SUV       0.132000
     35 H4          -0.4990     0.8550    -3.5230 h1         1 SUV       0.065200
     36 H5           0.5130     2.2840    -3.6450 h1         1 SUV       0.065200
     37 H6           2.0300     0.5090    -3.2310 h1         1 SUV       0.064700
     38 H7           0.9520    -0.2270    -2.0390 h1         1 SUV       0.064700
     39 H8           2.2560     3.1320    -2.4200 h1         1 SUV       0.038700
     40 H9           0.8980     3.2520     0.2960 hc         1 SUV       0.068700
     41 H10          1.3480     4.6900    -0.6030 hc         1 SUV       0.068700
     42 H11         -0.0900     4.1410    -2.4510 h1         1 SUV       0.058200
     43 H12         -1.0210     4.0820    -0.9660 h1         1 SUV       0.058200
     44 H13          1.8230    -3.7640     1.4530 ha         1 SUV       0.143000
     45 H14          3.1170    -4.6990    -0.4400 ha         1 SUV       0.120000
     46 H15          3.7300    -0.7280    -1.9970 ha         1 SUV       0.120000
     47 H16         -1.3340    -0.0870     3.1510 h4         1 SUV       0.052100
     48 H17          0.7170    -0.7070     4.8950 h4         1 SUV       0.052100
     49 H18          3.6660    -3.4780    -3.3920 hc         1 SUV       0.045700
     50 H19          5.1240    -2.6690    -2.7920 hc         1 SUV       0.045700
     51 H20          4.7430    -4.3110    -2.2590 hc         1 SUV       0.045700
     52 H21          4.4580     2.7840    -1.3550 hc         1 SUV       0.048033
     53 H22          3.7990     4.4210    -1.1880 hc         1 SUV       0.048033
     54 H23          3.7720     3.3210     0.1960 hc         1 SUV       0.048033
     55 Cl1         -5.0570    -2.6720     1.7000 cl         1 SUV      -0.207000
@<TRIPOS>BOND
     1     1     2 1   
     2     1     3 1   
     3     1     4 2   
     4     2    16 1   
     5     2    20 1   
     6     3    15 1   
     7     4     6 1   
     8     5    21 2   
     9     6     8 ar  
    10     6    15 ar  
    11     7    17 1   
    12     7    18 1   
    13     7    21 1   
    14     8    10 ar  
    15     8    32 1   
    16     9    11 1   
    17     9    13 1   
    18     9    23 1   
    19    10    12 ar  
    20    10    55 1   
    21    11    28 2   
    22    12    14 ar  
    23    12    33 1   
    24    13    29 2   
    25    14    15 ar  
    26    14    34 1   
    27    16    17 1   
    28    16    35 1   
    29    16    36 1   
    30    17    37 1   
    31    17    38 1   
    32    18    19 1   
    33    18    31 1   
    34    18    39 1   
    35    19    20 1   
    36    19    40 1   
    37    19    41 1   
    38    20    42 1   
    39    20    43 1   
    40    21    22 1   
    41    22    23 ar  
    42    22    27 ar  
    43    23    24 ar  
    44    24    25 ar  
    45    24    44 1   
    46    25    26 ar  
    47    25    45 1   
    48    26    27 ar  
    49    26    30 1   
    50    27    46 1   
    51    28    29 1   
    52    28    47 1   
    53    29    48 1   
    54    30    49 1   
    55    30    50 1   
    56    30    51 1   
    57    31    52 1   
    58    31    53 1   
    59    31    54 1   
@<TRIPOS>SUBSTRUCTURE
     1 SUV         1 TEMP              0 ****  ****    0 ROOT
