@<TRIPOS>MOLECULE
SUV
   55    59     1     0     0
SMALL
abcg2


@<TRIPOS>ATOM
      1 C1          -1.2990     1.2790    -0.8740 cc         1 SUV       0.798500
      2 N1          -0.5710     2.1380    -1.5890 nh         1 SUV      -0.730600
      3 O1          -1.9800     1.7600     0.1900 os         1 SUV      -0.298700
      4 N2          -1.4790     0.0150    -1.1270 nd         1 SUV      -0.666100
      5 O2           3.1790     1.2530     0.6880 o          1 SUV      -0.585100
      6 C3          -2.3450    -0.4000    -0.1430 ca         1 SUV       0.115400
      7 N3           2.1710     1.4670    -1.3370 n          1 SUV      -0.399800
      8 C4          -2.8860    -1.6480     0.1310 ca         1 SUV      -0.070000
      9 N4           0.9860    -0.8020     1.5950 na         1 SUV       0.348800
     10 C5          -3.7280    -1.7320     1.2330 ca         1 SUV       0.119000
     11 N5           0.4830     0.4000     1.4490 nc         1 SUV      -0.491800
     12 C6          -4.0380    -0.6420     2.0400 ca         1 SUV      -0.112000
     13 N6           0.7740    -1.3580     2.7700 nc         1 SUV      -0.491800
     14 C7          -3.4920     0.6100     1.7640 ca         1 SUV      -0.076000
     15 C8          -2.6600     0.6820     0.6750 ca         1 SUV       0.006100
     16 C11          0.1260     1.6300    -2.7510 c3         1 SUV       0.215800
     17 C12          1.4020     0.8590    -2.4130 c3         1 SUV       0.076000
     18 C14          2.2850     2.9330    -1.3630 c3         1 SUV       0.125700
     19 C15          1.1800     3.5650    -0.5090 c3         1 SUV      -0.125400
     20 C16         -0.2100     3.4740    -1.1340 c3         1 SUV       0.236800
     21 C17          2.6150     0.7620    -0.2770 c          1 SUV       0.635700
     22 C19          2.4790    -0.7350    -0.3390 ca         1 SUV      -0.127600
     23 C20          1.7380    -1.4540     0.5960 ca         1 SUV       0.062800
     24 C21          1.7410    -2.8420     0.5690 ca         1 SUV      -0.097000
     25 C22          2.5030    -3.5170    -0.3690 ca         1 SUV      -0.091000
     26 C23          3.2660    -2.8270    -1.3070 ca         1 SUV      -0.075300
     27 C24          3.2320    -1.4370    -1.2740 ca         1 SUV      -0.088000
     28 C27         -0.0970     0.6560     2.6050 cd         1 SUV       0.202900
     29 C28          0.0820    -0.4540     3.4360 cd         1 SUV       0.202900
     30 C29          4.0710    -3.5530    -2.3420 c3         1 SUV      -0.047800
     31 C30          3.6690     3.4810    -1.0300 c3         1 SUV      -0.094100
     32 H1          -2.6610    -2.5110    -0.4800 ha         1 SUV       0.145000
     33 H2          -4.7030    -0.7630     2.8840 ha         1 SUV       0.132000
     34 H3          -3.7180     1.4660     2.3850 ha         1 SUV       0.132000
     35 H4          -0.5280     0.9670    -3.3170 h1         1 SUV       0.065200
     36 H5           0.3350     2.4820    -3.3970 h1         1 SUV       0.065200
     37 H6           2.0050     0.7790    -3.3220 h1         1 SUV       0.064700
     38 H7           1.1150    -0.1470    -2.1210 h1         1 SUV       0.064700
     39 H8           2.1170     3.2130    -2.4060 h1         1 SUV       0.038700
     40 H9           1.1840     3.1100     0.4830 hc         1 SUV       0.068700
     41 H10          1.3990     4.6280    -0.3710 hc         1 SUV       0.068700
     42 H11         -0.2540     4.1240    -2.0110 h1         1 SUV       0.058200
     43 H12         -0.9580     3.8440    -0.4360 h1         1 SUV       0.058200
     44 H13          1.1510    -3.3970     1.2850 ha         1 SUV       0.143000
     45 H14          2.4970    -4.6000    -0.3690 ha         1 SUV       0.120000
     46 H15          3.8170    -0.8790    -1.9960 ha         1 SUV       0.120000
     47 H16         -0.6020     1.5880     2.7960 h4         1 SUV       0.052100
     48 H17         -0.2460    -0.6230     4.4480 h4         1 SUV       0.052100
     49 H18          3.4870    -3.7000    -3.2530 hc         1 SUV       0.045700
     50 H19          4.9650    -2.9940    -2.6190 hc         1 SUV       0.045700
     51 H20          4.3790    -4.5360    -1.9910 hc         1 SUV       0.045700
     52 H21          4.4500     2.9100    -1.5340 hc         1 SUV       0.048033
     53 H22          3.7260     4.5070    -1.3960 hc         1 SUV       0.048033
     54 H23          3.8800     3.4920     0.0350 hc         1 SUV       0.048033
     55 CL1         -4.4270    -3.2760     1.6230 cl         1 SUV      -0.207000
@<TRIPOS>BOND
     1     1     2 1   
     2     1     3 1   
     3     1     4 2   
     4     2    16 1   
     5     2    20 1   
     6     3    15 1   
     7     4     6 1   
     8     5    21 2   
     9     6     8 ar  
    10     6    15 ar  
    11     7    17 1   
    12     7    18 1   
    13     7    21 1   
    14     8    10 ar  
    15     8    32 1   
    16     9    11 1   
    17     9    13 1   
    18     9    23 1   
    19    10    12 ar  
    20    10    55 1   
    21    11    28 2   
    22    12    14 ar  
    23    12    33 1   
    24    13    29 2   
    25    14    15 ar  
    26    14    34 1   
    27    16    17 1   
    28    16    35 1   
    29    16    36 1   
    30    17    37 1   
    31    17    38 1   
    32    18    19 1   
    33    18    31 1   
    34    18    39 1   
    35    19    20 1   
    36    19    40 1   
    37    19    41 1   
    38    20    42 1   
    39    20    43 1   
    40    21    22 1   
    41    22    23 ar  
    42    22    27 ar  
    43    23    24 ar  
    44    24    25 ar  
    45    24    44 1   
    46    25    26 ar  
    47    25    45 1   
    48    26    27 ar  
    49    26    30 1   
    50    27    46 1   
    51    28    29 1   
    52    28    47 1   
    53    29    48 1   
    54    30    49 1   
    55    30    50 1   
    56    30    51 1   
    57    31    52 1   
    58    31    53 1   
    59    31    54 1   
@<TRIPOS>SUBSTRUCTURE
     1 SUV         1 TEMP              0 ****  ****    0 ROOT
