@<TRIPOS>MOLECULE
SUW
   61    63     1     0     0
SMALL
No Charge or Current Charge


@<TRIPOS>ATOM
      1 CX1          1.1080     0.9170    -0.1470 c          1 SUW       0.691000
      2 O1A          2.0130     0.0810    -0.1160 o          1 SUW      -0.708500
      3 O1B          0.4990     1.0410    -1.2060 o          1 SUW      -0.708500
      4 CX2          1.3430     2.2660     0.7280 c6         1 SUW       0.261000
      5 OX2          1.2460     3.4740    -0.0850 os         1 SUW      -0.454000
      6 CO2          2.2390     3.6740    -1.1120 c3         1 SUW       0.169900
      7 CX3          0.2660     2.4430     1.8480 c6         1 SUW      -0.110400
      8 CX4          0.5060     1.5730     3.1110 c6         1 SUW       0.151300
      9 OX4         -0.4300     1.9550     4.1290 oh         1 SUW      -0.663000
     10 CX5          1.9710     1.7090     3.6330 c6         1 SUW       0.041700
     11 NX5          2.2280     0.8180     4.7930 ns         1 SUW      -0.484900
     12 C10          1.8370     1.0590     6.0880 c          1 SUW       0.610100
     13 O10          1.1420     2.0200     6.3810 o          1 SUW      -0.620100
     14 C11          2.3100     0.0350     7.1100 c3         1 SUW      -0.180100
     15 CX6          2.8730     1.3590     2.4260 c6         1 SUW       0.185300
     16 OX6          2.6550     2.3170     1.3550 os         1 SUW      -0.480000
     17 CX7          4.4110     1.2540     2.6790 c3         1 SUW       0.156300
     18 OX7          4.9870     2.4670     3.2120 oh         1 SUW      -0.717000
     19 CX8          5.1650     0.8280     1.3660 c3         1 SUW       0.147300
     20 OX8          4.5890    -0.3770     0.8040 oh         1 SUW      -0.720000
     21 CX9          6.7000     0.6360     1.5390 c3         1 SUW       0.093000
     22 NX6          7.0850    -0.2540     2.6480 ns         1 SUW      -0.478900
     23 C12          7.2880     0.1540     3.9480 c          1 SUW       0.607700
     24 O12          7.1590     1.3320     4.2600 o          1 SUW      -0.635100
     25 C25          7.8440    -0.5460     6.3080 ca         1 SUW      -0.041000
     26 C26          7.6480    -0.9140     4.9570 ca         1 SUW      -0.143600
     27 C27          7.7910    -2.2780     4.5990 ca         1 SUW      -0.084000
     28 C28          8.1210    -3.2410     5.5690 ca         1 SUW      -0.112000
     29 C2B          8.3130    -2.8640     6.9090 ca         1 SUW      -0.024000
     30 C21          8.6420    -3.8290     7.8800 ca         1 SUW      -0.103000
     31 C22          8.8320    -3.4450     9.2180 ca         1 SUW      -0.105000
     32 C23          8.6930    -2.0960     9.5890 ca         1 SUW      -0.119000
     33 C24          8.3650    -1.1300     8.6230 ca         1 SUW      -0.086000
     34 C2A          8.1740    -1.5100     7.2800 ca         1 SUW      -0.051000
     35 HO21         3.2420     3.7770    -0.6760 h1         1 SUW       0.023700
     36 HO22         2.0230     4.5920    -1.6720 h1         1 SUW       0.023700
     37 HO23         2.2580     2.8400    -1.8240 h1         1 SUW       0.023700
     38 HX31        -0.7270     2.2240     1.4350 hc         1 SUW       0.060700
     39 HX32         0.2400     3.4990     2.1500 hc         1 SUW       0.060700
     40 HX4          0.3400     0.5190     2.8350 h1         1 SUW       0.080700
     41 HA           0.0940     2.0180     4.9700 ho         1 SUW       0.438000
     42 HX5          2.1710     2.7500     3.9290 h1         1 SUW       0.102700
     43 HB           2.7790    -0.0200     4.6500 hn         1 SUW       0.305500
     44 H111         3.4020    -0.0410     7.0600 hc         1 SUW       0.051033
     45 H112         1.9650     0.2610     8.1260 hc         1 SUW       0.051033
     46 H113         1.9930    -0.9640     6.7890 hc         1 SUW       0.051033
     47 HX6          2.5620     0.3570     2.1140 h1         1 SUW       0.059700
     48 HX7          4.5480     0.4480     3.4120 h1         1 SUW       0.026700
     49 HC           5.8420     2.1850     3.6460 ho         1 SUW       0.519000
     50 HX8          5.0410     1.6430     0.6390 h1         1 SUW       0.058700
     51 HD           3.6830    -0.1430     0.4430 ho         1 SUW       0.529000
     52 HX91         7.1160     0.2290     0.6080 h1         1 SUW       0.054700
     53 HX92         7.1690     1.6170     1.6930 h1         1 SUW       0.054700
     54 HE           7.1800    -1.2420     2.4540 hn         1 SUW       0.320500
     55 H27          7.6510    -2.6120     3.5740 ha         1 SUW       0.125000
     56 H28          8.2270    -4.2830     5.2750 ha         1 SUW       0.115000
     57 H21          8.7510    -4.8740     7.5990 ha         1 SUW       0.112000
     58 H22          9.0860    -4.1910     9.9670 ha         1 SUW       0.108000
     59 H23          8.8400    -1.8000    10.6260 ha         1 SUW       0.109000
     60 H24          8.2590    -0.0880     8.9190 ha         1 SUW       0.116000
     61 H25          7.7390     0.4950     6.6080 ha         1 SUW       0.137000
@<TRIPOS>BOND
     1     1     2 1   
     2     1     3 1   
     3     1     4 1   
     4     4     5 1   
     5     4     7 1   
     6     4    16 1   
     7     5     6 1   
     8     6    35 1   
     9     6    36 1   
    10     6    37 1   
    11     7     8 1   
    12     7    38 1   
    13     7    39 1   
    14     8     9 1   
    15     8    10 1   
    16     8    40 1   
    17     9    41 1   
    18    10    11 1   
    19    10    15 1   
    20    10    42 1   
    21    11    12 1   
    22    11    43 1   
    23    12    13 2   
    24    12    14 1   
    25    14    44 1   
    26    14    45 1   
    27    14    46 1   
    28    15    16 1   
    29    15    17 1   
    30    15    47 1   
    31    17    18 1   
    32    17    19 1   
    33    17    48 1   
    34    18    49 1   
    35    19    20 1   
    36    19    21 1   
    37    19    50 1   
    38    20    51 1   
    39    21    22 1   
    40    21    52 1   
    41    21    53 1   
    42    22    23 1   
    43    22    54 1   
    44    23    24 2   
    45    23    26 1   
    46    25    26 ar  
    47    25    34 ar  
    48    25    61 1   
    49    26    27 ar  
    50    27    28 ar  
    51    27    55 1   
    52    28    29 ar  
    53    28    56 1   
    54    29    30 ar  
    55    29    34 ar  
    56    30    31 ar  
    57    30    57 1   
    58    31    32 ar  
    59    31    58 1   
    60    32    33 ar  
    61    32    59 1   
    62    33    34 ar  
    63    33    60 1   
@<TRIPOS>SUBSTRUCTURE
     1 SUW         1 TEMP              0 ****  ****    0 ROOT
