@<TRIPOS>MOLECULE
SUW
   61    63     1     0     0
SMALL
bcc


@<TRIPOS>ATOM
      1 CX1          1.3810     0.6620    -0.0420 c          1 SUW       0.901600
      2 O1A          2.4570     0.0550    -0.2470 o          1 SUW      -0.813800
      3 O1B          0.2510     0.2970    -0.3940 o          1 SUW      -0.813800
      4 CX2          1.4510     2.0600     0.6640 c6         1 SUW       0.214600
      5 OX2          1.3830     3.0650    -0.3000 os         1 SUW      -0.407600
      6 CO2          2.3320     3.0260    -1.3490 c3         1 SUW       0.146700
      7 CX3          0.2970     2.3170     1.6310 c6         1 SUW      -0.110400
      8 CX4          0.4340     1.5270     2.9300 c6         1 SUW       0.128100
      9 OX4         -0.5870     1.8420     3.8460 oh         1 SUW      -0.600800
     10 CX5          1.8330     1.7190     3.5300 c6         1 SUW       0.041700
     11 NX5          2.0150     0.8930     4.6950 ns         1 SUW      -0.551900
     12 C10          2.0410     1.3550     5.9580 c          1 SUW       0.677100
     13 O10          1.9500     2.5400     6.2470 o          1 SUW      -0.620100
     14 C11          2.2030     0.2950     7.0200 c3         1 SUW      -0.180100
     15 CX6          2.8500     1.3700     2.4430 c6         1 SUW       0.162100
     16 OX6          2.6650     2.2350     1.3480 os         1 SUW      -0.433600
     17 CX7          4.3070     1.4310     2.8700 c3         1 SUW       0.133100
     18 OX7          4.5780     2.6590     3.5000 oh         1 SUW      -0.594800
     19 CX8          5.2310     1.2190     1.6540 c3         1 SUW       0.124100
     20 OX8          4.9300     0.0320     0.9690 oh         1 SUW      -0.657800
     21 CX9          6.7020     1.1830     2.0560 c3         1 SUW       0.093000
     22 NX6          7.0390     0.1440     3.0060 ns         1 SUW      -0.545900
     23 C12          7.0760     0.3350     4.3300 c          1 SUW       0.674700
     24 O12          6.8250     1.4190     4.8570 o          1 SUW      -0.635100
     25 C25          7.9940    -0.6150     6.4060 ca         1 SUW      -0.059000
     26 C26          7.4610    -0.8440     5.1620 ca         1 SUW      -0.143600
     27 C27          7.2760    -2.1760     4.7190 ca         1 SUW      -0.102000
     28 C28          7.6380    -3.2290     5.5100 ca         1 SUW      -0.130000
     29 C2B          8.2130    -3.0160     6.7840 ca         1 SUW      -0.024000
     30 C21          8.6070    -4.0870     7.6190 ca         1 SUW      -0.121000
     31 C22          9.1560    -3.8420     8.8490 ca         1 SUW      -0.123000
     32 C23          9.3350    -2.5160     9.3000 ca         1 SUW      -0.137000
     33 C24          8.9600    -1.4620     8.5140 ca         1 SUW      -0.104000
     34 C2A          8.3910    -1.6840     7.2370 ca         1 SUW      -0.051000
     35 HO21         3.3610     2.9920    -0.9840 h1         1 SUW       0.023700
     36 HO22         2.1990     3.9450    -1.9170 h1         1 SUW       0.023700
     37 HO23         2.1790     2.1820    -2.0270 h1         1 SUW       0.023700
     38 HX31        -0.6580     2.0870     1.1590 hc         1 SUW       0.060700
     39 HX32         0.3000     3.3870     1.8720 hc         1 SUW       0.060700
     40 HX4          0.3070     0.4590     2.7160 h1         1 SUW       0.080700
     41 HA          -0.5120     2.7750     4.0750 ho         1 SUW       0.399000
     42 HX5          1.9670     2.7600     3.8320 h1         1 SUW       0.102700
     43 HB           2.0420    -0.1050     4.5580 hn         1 SUW       0.305500
     44 H111         3.1120     0.4870     7.5890 hc         1 SUW       0.051033
     45 H112         1.3660     0.3510     7.7170 hc         1 SUW       0.051033
     46 H113         2.2540    -0.7180     6.6250 hc         1 SUW       0.051033
     47 HX6          2.6610     0.3270     2.1530 h1         1 SUW       0.059700
     48 HX7          4.4480     0.5930     3.5650 h1         1 SUW       0.026700
     49 HC           5.3520     2.5170     4.0640 ho         1 SUW       0.420000
     50 HX8          5.1310     2.0980     1.0010 h1         1 SUW       0.058700
     51 HD           4.0590     0.1290     0.5270 ho         1 SUW       0.490000
     52 HX91         7.3050     1.0230     1.1620 h1         1 SUW       0.054700
     53 HX92         6.9980     2.1500     2.4620 h1         1 SUW       0.054700
     54 HE           7.3190    -0.7460     2.6290 hn         1 SUW       0.320500
     55 H27          6.8150    -2.3830     3.7610 ha         1 SUW       0.143000
     56 H28          7.4800    -4.2440     5.1650 ha         1 SUW       0.133000
     57 H21          8.4700    -5.1030     7.2720 ha         1 SUW       0.130000
     58 H22          9.4560    -4.6670     9.4820 ha         1 SUW       0.126000
     59 H23          9.7720    -2.3370    10.2740 ha         1 SUW       0.127000
     60 H24          9.0980    -0.4440     8.8580 ha         1 SUW       0.134000
     61 H25          8.1290     0.3990     6.7610 ha         1 SUW       0.155000
@<TRIPOS>BOND
     1     1     2 1   
     2     1     3 1   
     3     1     4 1   
     4     4     5 1   
     5     4     7 1   
     6     4    16 1   
     7     5     6 1   
     8     6    35 1   
     9     6    36 1   
    10     6    37 1   
    11     7     8 1   
    12     7    38 1   
    13     7    39 1   
    14     8     9 1   
    15     8    10 1   
    16     8    40 1   
    17     9    41 1   
    18    10    11 1   
    19    10    15 1   
    20    10    42 1   
    21    11    12 1   
    22    11    43 1   
    23    12    13 2   
    24    12    14 1   
    25    14    44 1   
    26    14    45 1   
    27    14    46 1   
    28    15    16 1   
    29    15    17 1   
    30    15    47 1   
    31    17    18 1   
    32    17    19 1   
    33    17    48 1   
    34    18    49 1   
    35    19    20 1   
    36    19    21 1   
    37    19    50 1   
    38    20    51 1   
    39    21    22 1   
    40    21    52 1   
    41    21    53 1   
    42    22    23 1   
    43    22    54 1   
    44    23    24 2   
    45    23    26 1   
    46    25    26 ar  
    47    25    34 ar  
    48    25    61 1   
    49    26    27 ar  
    50    27    28 ar  
    51    27    55 1   
    52    28    29 ar  
    53    28    56 1   
    54    29    30 ar  
    55    29    34 ar  
    56    30    31 ar  
    57    30    57 1   
    58    31    32 ar  
    59    31    58 1   
    60    32    33 ar  
    61    32    59 1   
    62    33    34 ar  
    63    33    60 1   
@<TRIPOS>SUBSTRUCTURE
     1 SUW         1 TEMP              0 ****  ****    0 ROOT
