@<TRIPOS>MOLECULE
SUX
   50    54     1     0     0
SMALL
No Charge or Current Charge


@<TRIPOS>ATOM
      1 C01          6.4200     6.9090    18.7560 ca         1 SUX       0.384300
      2 C02          5.0870     6.4670    18.5480 ca         1 SUX      -0.171500
      3 C04          4.6470     6.8680    20.9150 ca         1 SUX      -0.109300
      4 C05          5.9890     7.2850    21.0270 ca         1 SUX       0.379300
      5 C07          3.7320     6.8970    22.1470 c3         1 SUX      -0.029100
      6 C10          6.6500     6.6030    23.4110 c3         1 SUX      -0.069400
      7 C11          6.6020     7.7290    22.3520 c3         1 SUX      -0.130700
      8 C13          7.3270     8.2760    16.8180 c5         1 SUX      -0.102400
      9 C15          8.1010     6.3700    15.5060 c5         1 SUX       0.147600
     10 C17          4.6550     6.0220    17.2280 cc         1 SUX       0.489000
     11 C22          2.7840     5.9630    19.4420 cp         1 SUX      -0.058000
     12 C23          1.8500     6.7450    18.7220 ca         1 SUX      -0.088000
     13 C24          0.5330     6.2940    18.5250 ca         1 SUX      -0.107000
     14 C25          0.1310     5.0540    19.0470 ca         1 SUX      -0.097000
     15 C26          1.0450     4.2640    19.7650 ca         1 SUX      -0.107000
     16 C27          2.3610     4.7160    19.9600 ca         1 SUX      -0.088000
     17 C03          4.1850     6.4370    19.6440 cp         1 SUX       0.037000
     18 N06          6.8380     7.3030    19.9810 nb         1 SUX      -0.684000
     19 C08          4.1480     5.8750    23.2270 c3         1 SUX      -0.069400
     20 C09          5.3090     6.3420    24.1330 c3         1 SUX      -0.076400
     21 C12          7.4950     6.9590    17.6420 c5         1 SUX       0.100000
     22 C14          7.5620     7.8130    15.3420 c5         1 SUX      -0.114400
     23 O16          7.4070     5.8980    16.6700 os         1 SUX      -0.446000
     24 N18          4.3380     4.7930    16.8750 nd         1 SUX      -0.366000
     25 N19          3.8670     4.8690    15.5850 nd         1 SUX      -0.045000
     26 N20          3.8350     6.1000    15.1520 nc         1 SUX      -0.211800
     27 N21          4.3160     6.8340    16.1870 na         1 SUX      -0.219700
     28 H29          3.7150     7.9030    22.5840 hc         1 SUX       0.054700
     29 H28          2.6900     6.6980    21.8750 hc         1 SUX       0.054700
     30 H34          7.3940     6.8750    24.1700 hc         1 SUX       0.047700
     31 H35          7.0080     5.6760    22.9460 hc         1 SUX       0.047700
     32 H36          7.6280     8.0820    22.1890 hc         1 SUX       0.061200
     33 H37          6.0570     8.5930    22.7520 hc         1 SUX       0.061200
     34 H39          8.0660     9.0230    17.1300 hc         1 SUX       0.052700
     35 H43          7.8830     5.7260    14.6430 h1         1 SUX       0.057200
     36 H44          9.1830     6.3560    15.7010 h1         1 SUX       0.057200
     37 H46          2.1510     7.7090    18.3180 ha         1 SUX       0.113500
     38 H47         -0.1740     6.9070    17.9700 ha         1 SUX       0.117000
     39 H48         -0.8890     4.7040    18.8950 ha         1 SUX       0.116000
     40 H49          0.7340     3.3030    20.1680 ha         1 SUX       0.117000
     41 H50          3.0640     4.0970    20.5130 ha         1 SUX       0.113500
     42 H30          3.2790     5.6770    23.8670 hc         1 SUX       0.044700
     43 H31          4.4050     4.9200    22.7520 hc         1 SUX       0.044700
     44 H33          5.0050     7.2530    24.6650 hc         1 SUX       0.039700
     45 H32          5.4740     5.5790    24.9040 hc         1 SUX       0.039700
     46 H38          8.4980     6.9200    18.0890 h1         1 SUX       0.073700
     47 H42          6.6290     7.8160    14.7680 hc         1 SUX       0.053700
     48 H41          8.2690     8.4580    14.8080 hc         1 SUX       0.053700
     49 H45          4.3830     7.8420    16.1540 hn         1 SUX       0.379000
     50 H40          6.3430     8.7400    16.9440 hc         1 SUX       0.052700
@<TRIPOS>BOND
     1     1     2 ar  
     2     1    18 ar  
     3     1    21 1   
     4     2    10 1   
     5     2    17 ar  
     6     3     4 ar  
     7     3     5 1   
     8     3    17 ar  
     9     4     7 1   
    10     4    18 ar  
    11     5    19 1   
    12     5    28 1   
    13     5    29 1   
    14     6     7 1   
    15     6    20 1   
    16     6    30 1   
    17     6    31 1   
    18     7    32 1   
    19     7    33 1   
    20     8    21 1   
    21     8    22 1   
    22     8    34 1   
    23     8    50 1   
    24     9    22 1   
    25     9    23 1   
    26     9    35 1   
    27     9    36 1   
    28    10    24 2   
    29    10    27 1   
    30    11    12 ar  
    31    11    16 ar  
    32    11    17 1   
    33    12    13 ar  
    34    12    37 1   
    35    13    14 ar  
    36    13    38 1   
    37    14    15 ar  
    38    14    39 1   
    39    15    16 ar  
    40    15    40 1   
    41    16    41 1   
    42    19    20 1   
    43    19    42 1   
    44    19    43 1   
    45    20    44 1   
    46    20    45 1   
    47    21    23 1   
    48    21    46 1   
    49    22    47 1   
    50    22    48 1   
    51    24    25 1   
    52    25    26 2   
    53    26    27 1   
    54    27    49 1   
@<TRIPOS>SUBSTRUCTURE
     1 SUX         1 TEMP              0 ****  ****    0 ROOT
