@<TRIPOS>MOLECULE
SUX
   50    54     1     0     0
SMALL
abcg2


@<TRIPOS>ATOM
      1 C01          6.4050     6.8790    18.7620 ca         1 SUX       0.384300
      2 C02          5.0930     6.4450    18.5600 ca         1 SUX      -0.171500
      3 C04          4.6560     6.8670    20.9010 ca         1 SUX      -0.109300
      4 C05          5.9940     7.2790    21.0050 ca         1 SUX       0.379300
      5 C07          3.7560     6.9040    22.1080 c3         1 SUX      -0.029100
      6 C10          6.6250     6.5960    23.3780 c3         1 SUX      -0.069400
      7 C11          6.5780     7.7150    22.3210 c3         1 SUX      -0.130700
      8 C13          7.4090     8.3210    16.8840 c5         1 SUX      -0.102400
      9 C15          7.9180     6.4060    15.5050 c5         1 SUX       0.147600
     10 C17          4.6140     5.9810    17.2480 cc         1 SUX       0.489000
     11 C22          2.8090     5.9590    19.4510 cp         1 SUX      -0.058000
     12 C23          1.9100     6.7130    18.6970 ca         1 SUX      -0.088000
     13 C24          0.6100     6.2620    18.4930 ca         1 SUX      -0.107000
     14 C25          0.1990     5.0500    19.0360 ca         1 SUX      -0.097000
     15 C26          1.0910     4.2930    19.7900 ca         1 SUX      -0.107000
     16 C27          2.3880     4.7460    19.9980 ca         1 SUX      -0.088000
     17 C03          4.2060     6.4300    19.6520 cp         1 SUX       0.037000
     18 N06          6.8290     7.2740    19.9630 nb         1 SUX      -0.684000
     19 C08          4.1390     5.8930    23.2040 c3         1 SUX      -0.069400
     20 C09          5.2980     6.3410    24.0940 c3         1 SUX      -0.076400
     21 C12          7.4440     6.9820    17.6730 c5         1 SUX       0.100000
     22 C14          7.5780     7.8940    15.4100 c5         1 SUX      -0.114400
     23 O16          7.2830     5.9500    16.7030 os         1 SUX      -0.446000
     24 N18          4.3570     4.7350    16.8870 nd         1 SUX      -0.366000
     25 N19          3.9080     4.7940    15.6120 nd         1 SUX      -0.045000
     26 N20          3.8720     6.0110    15.1900 nc         1 SUX      -0.211800
     27 N21          4.3020     6.7670    16.2080 na         1 SUX      -0.219700
     28 H29          3.7740     7.9120    22.5370 hc         1 SUX       0.054700
     29 H28          2.7310     6.7210    21.7950 hc         1 SUX       0.054700
     30 H34          7.3720     6.8720    24.1270 hc         1 SUX       0.047700
     31 H35          6.9800     5.6740    22.9070 hc         1 SUX       0.047700
     32 H36          7.5870     8.0730    22.1220 hc         1 SUX       0.061200
     33 H37          6.0030     8.5570    22.7190 hc         1 SUX       0.061200
     34 H39          8.2110     8.9750    17.2210 hc         1 SUX       0.052700
     35 H43          7.5330     5.8080    14.6800 h1         1 SUX       0.057200
     36 H44          9.0010     6.2530    15.5830 h1         1 SUX       0.057200
     37 H46          2.2280     7.6580    18.2720 ha         1 SUX       0.113500
     38 H47         -0.0790     6.8590    17.9090 ha         1 SUX       0.117000
     39 H48         -0.8120     4.6960    18.8730 ha         1 SUX       0.116000
     40 H49          0.7780     3.3480    20.2150 ha         1 SUX       0.117000
     41 H50          3.0820     4.1560    20.5840 ha         1 SUX       0.113500
     42 H30          3.2630     5.7290    23.8360 hc         1 SUX       0.044700
     43 H31          4.3730     4.9310    22.7380 hc         1 SUX       0.044700
     44 H33          5.0020     7.2610    24.6110 hc         1 SUX       0.039700
     45 H32          5.4570     5.5880    24.8720 hc         1 SUX       0.039700
     46 H38          8.4210     6.8760    18.1550 h1         1 SUX       0.073700
     47 H42          6.6480     8.0340    14.8600 hc         1 SUX       0.053700
     48 H41          8.3590     8.4560    14.9000 hc         1 SUX       0.053700
     49 H45          4.3560     7.7730    16.1220 hn         1 SUX       0.379000
     50 H40          6.4670     8.8440    17.0430 hc         1 SUX       0.052700
@<TRIPOS>BOND
     1     1     2 ar  
     2     1    18 ar  
     3     1    21 1   
     4     2    10 1   
     5     2    17 ar  
     6     3     4 ar  
     7     3     5 1   
     8     3    17 ar  
     9     4     7 1   
    10     4    18 ar  
    11     5    19 1   
    12     5    28 1   
    13     5    29 1   
    14     6     7 1   
    15     6    20 1   
    16     6    30 1   
    17     6    31 1   
    18     7    32 1   
    19     7    33 1   
    20     8    21 1   
    21     8    22 1   
    22     8    34 1   
    23     8    50 1   
    24     9    22 1   
    25     9    23 1   
    26     9    35 1   
    27     9    36 1   
    28    10    24 2   
    29    10    27 1   
    30    11    12 ar  
    31    11    16 ar  
    32    11    17 1   
    33    12    13 ar  
    34    12    37 1   
    35    13    14 ar  
    36    13    38 1   
    37    14    15 ar  
    38    14    39 1   
    39    15    16 ar  
    40    15    40 1   
    41    16    41 1   
    42    19    20 1   
    43    19    42 1   
    44    19    43 1   
    45    20    44 1   
    46    20    45 1   
    47    21    23 1   
    48    21    46 1   
    49    22    47 1   
    50    22    48 1   
    51    24    25 1   
    52    25    26 2   
    53    26    27 1   
    54    27    49 1   
@<TRIPOS>SUBSTRUCTURE
     1 SUX         1 TEMP              0 ****  ****    0 ROOT
