@<TRIPOS>MOLECULE
SUZ
   41    43     1     0     0
SMALL
No Charge or Current Charge


@<TRIPOS>ATOM
      1 C20         -3.2180     0.3180     0.9800 ca         1 SUZ      -0.052000
      2 C19         -1.8740     0.6840     0.7930 ca         1 SUZ      -0.122000
      3 C5          -1.5010     1.4810    -0.3060 ca         1 SUZ       0.012200
      4 C6          -0.0870     1.8840    -0.4960 ce         1 SUZ      -0.206200
      5 C7           1.0530     1.1070    -0.5350 cd         1 SUZ       0.055800
      6 C18          1.1430    -0.3390    -0.6240 ca         1 SUZ      -0.101800
      7 C17          0.1590    -1.3280    -0.7960 ca         1 SUZ      -0.067000
      8 C16          0.5750    -2.6730    -0.8650 ca         1 SUZ      -0.180000
      9 C15          1.9460    -2.9970    -0.7790 ca         1 SUZ       0.162000
     10 F            2.3310    -4.2900    -0.8490 f          1 SUZ      -0.194000
     11 C14          2.9170    -1.9880    -0.6380 ca         1 SUZ      -0.101000
     12 C13          2.4860    -0.6530    -0.5720 ca         1 SUZ       0.000200
     13 C10          3.2900     0.5630    -0.4680 cc         1 SUZ       0.066600
     14 C11          4.7990     0.6070    -0.4170 c3         1 SUZ      -0.198200
     15 C12          5.3110     0.4420     1.0170 c          1 SUZ       0.725000
     16 O3           5.4260     1.4440     1.7070 o          1 SUZ      -0.718500
     17 O2           5.4680    -0.6920     1.4420 o          1 SUZ      -0.718500
     18 C8           2.3950     1.6370    -0.4440 cd         1 SUZ      -0.174200
     19 C9           2.7450     3.1040    -0.3220 c3         1 SUZ      -0.017900
     20 C4          -2.4860     1.9320    -1.2020 ca         1 SUZ      -0.122000
     21 C3          -3.8320     1.5680    -1.0190 ca         1 SUZ      -0.052000
     22 C2          -4.1980     0.7580     0.0700 ca         1 SUZ      -0.081500
     23 S           -5.9520     0.2780     0.2920 sx         1 SUZ       0.221200
     24 O1          -6.2350     0.2190     1.7830 o          1 SUZ      -0.522000
     25 C1          -5.7920    -1.4640    -0.3250 c3         1 SUZ      -0.060800
     26 H20         -3.4980    -0.3040     1.8270 ha         1 SUZ       0.120000
     27 H19         -1.1200     0.3470     1.5000 ha         1 SUZ       0.123500
     28 H6           0.0660     2.9610    -0.4750 ha         1 SUZ       0.181000
     29 H17         -0.8930    -1.0780    -0.8900 ha         1 SUZ       0.110000
     30 H16         -0.1590    -3.4630    -0.9920 ha         1 SUZ       0.115000
     31 H14          3.9710    -2.2440    -0.5870 ha         1 SUZ       0.154000
     32 H11          5.1530    -0.2260    -1.0330 hc         1 SUZ       0.039700
     33 H11A         5.1100     1.5780    -0.8170 hc         1 SUZ       0.039700
     34 H9           3.7980     3.2620    -0.0640 hc         1 SUZ       0.030700
     35 H9A          2.5510     3.6310    -1.2640 hc         1 SUZ       0.030700
     36 H9B          2.1510     3.5870     0.4620 hc         1 SUZ       0.030700
     37 H4          -2.2060     2.5590    -2.0450 ha         1 SUZ       0.123500
     38 H3          -4.5880     1.9130    -1.7210 ha         1 SUZ       0.120000
     39 H1          -5.0250    -1.9770     0.2670 h1         1 SUZ       0.075033
     40 H1A         -6.7610    -1.9630    -0.2110 h1         1 SUZ       0.075033
     41 H1B         -5.5000    -1.4320    -1.3820 h1         1 SUZ       0.075033
@<TRIPOS>BOND
     1     1     2 ar  
     2     1    22 ar  
     3     1    26 1   
     4     2     3 ar  
     5     2    27 1   
     6     3     4 1   
     7     3    20 ar  
     8     4     5 2   
     9     4    28 1   
    10     5     6 1   
    11     5    18 1   
    12     6     7 ar  
    13     6    12 ar  
    14     7     8 ar  
    15     7    29 1   
    16     8     9 ar  
    17     8    30 1   
    18     9    10 1   
    19     9    11 ar  
    20    11    12 ar  
    21    11    31 1   
    22    12    13 1   
    23    13    14 1   
    24    13    18 2   
    25    14    15 1   
    26    14    32 1   
    27    14    33 1   
    28    15    16 1   
    29    15    17 1   
    30    18    19 1   
    31    19    34 1   
    32    19    35 1   
    33    19    36 1   
    34    20    21 ar  
    35    20    37 1   
    36    21    22 ar  
    37    21    38 1   
    38    22    23 1   
    39    23    24 2   
    40    23    25 1   
    41    25    39 1   
    42    25    40 1   
    43    25    41 1   
@<TRIPOS>SUBSTRUCTURE
     1 SUZ         1 TEMP              0 ****  ****    0 ROOT
