@<TRIPOS>MOLECULE
SUZ
   41    43     1     0     0
SMALL
bcc


@<TRIPOS>ATOM
      1 C20         -3.2280     0.3080     1.0780 ca         1 SUZ      -0.070000
      2 C19         -1.8990     0.6540     0.8880 ca         1 SUZ      -0.140000
      3 C5          -1.5080     1.4350    -0.2000 ca         1 SUZ       0.012200
      4 C6          -0.1120     1.8340    -0.4050 ce         1 SUZ      -0.156200
      5 C7           0.9840     1.0560    -0.4080 cd         1 SUZ       0.055800
      6 C18          1.1300    -0.4100    -0.3420 ca         1 SUZ      -0.101800
      7 C17          0.2260    -1.4580    -0.3280 ca         1 SUZ      -0.085000
      8 C16          0.6940    -2.7710    -0.3270 ca         1 SUZ      -0.198000
      9 C15          2.0570    -2.9980    -0.3460 ca         1 SUZ       0.126900
     10 F            2.4990    -4.2680    -0.3380 f          1 SUZ      -0.158900
     11 C14          2.9910    -1.9760    -0.3780 ca         1 SUZ      -0.119000
     12 C13          2.5090    -0.6790    -0.3910 ca         1 SUZ       0.000200
     13 C10          3.2460     0.5810    -0.4950 cc         1 SUZ       0.066600
     14 C11          4.7250     0.6350    -0.5760 c3         1 SUZ      -0.198200
     15 C12          5.4490     0.2770     0.7490 c          1 SUZ       0.935600
     16 O3           4.7410     0.0520     1.7450 o          1 SUZ      -0.823800
     17 O2           6.6930     0.2540     0.6860 o          1 SUZ      -0.823800
     18 C8           2.3510     1.5950    -0.5320 cd         1 SUZ      -0.174200
     19 C9           2.6320     3.0540    -0.6390 c3         1 SUZ      -0.017900
     20 C4          -2.4920     1.9060    -1.0740 ca         1 SUZ      -0.140000
     21 C3          -3.8210     1.5630    -0.8960 ca         1 SUZ      -0.070000
     22 C2          -4.1750     0.7470     0.1690 ca         1 SUZ      -0.081500
     23 S           -5.8990     0.3170     0.4070 sx         1 SUZ       0.194400
     24 O1          -6.0140    -0.3420     1.7580 o          1 SUZ      -0.495200
     25 C1          -5.9580    -1.0150    -0.8130 c3         1 SUZ      -0.060800
     26 H20         -3.5180    -0.2930     1.9300 ha         1 SUZ       0.138000
     27 H19         -1.1570     0.3220     1.6040 ha         1 SUZ       0.141500
     28 H6           0.0350     2.8950    -0.5840 ha         1 SUZ       0.131000
     29 H17         -0.8420    -1.2910    -0.3230 ha         1 SUZ       0.128000
     30 H16          0.0020    -3.6020    -0.3140 ha         1 SUZ       0.133000
     31 H14          4.0510    -2.1960    -0.4120 ha         1 SUZ       0.172000
     32 H11          5.0780    -0.0540    -1.3520 hc         1 SUZ       0.039700
     33 H11A         5.0610     1.6250    -0.8960 hc         1 SUZ       0.039700
     34 H9           3.6920     3.2480    -0.7930 hc         1 SUZ       0.030700
     35 H9A          2.0920     3.5070    -1.4730 hc         1 SUZ       0.030700
     36 H9B          2.3280     3.5880     0.2640 hc         1 SUZ       0.030700
     37 H4          -2.2140     2.5420    -1.9060 ha         1 SUZ       0.141500
     38 H3          -4.5700     1.9360    -1.5860 ha         1 SUZ       0.138000
     39 H1          -5.2150    -1.7700    -0.5610 h1         1 SUZ       0.075033
     40 H1A         -6.9580    -1.4440    -0.7820 h1         1 SUZ       0.075033
     41 H1B         -5.7690    -0.6090    -1.8060 h1         1 SUZ       0.075033
@<TRIPOS>BOND
     1     1     2 ar  
     2     1    22 ar  
     3     1    26 1   
     4     2     3 ar  
     5     2    27 1   
     6     3     4 1   
     7     3    20 ar  
     8     4     5 2   
     9     4    28 1   
    10     5     6 1   
    11     5    18 1   
    12     6     7 ar  
    13     6    12 ar  
    14     7     8 ar  
    15     7    29 1   
    16     8     9 ar  
    17     8    30 1   
    18     9    10 1   
    19     9    11 ar  
    20    11    12 ar  
    21    11    31 1   
    22    12    13 1   
    23    13    14 1   
    24    13    18 2   
    25    14    15 1   
    26    14    32 1   
    27    14    33 1   
    28    15    16 1   
    29    15    17 1   
    30    18    19 1   
    31    19    34 1   
    32    19    35 1   
    33    19    36 1   
    34    20    21 ar  
    35    20    37 1   
    36    21    22 ar  
    37    21    38 1   
    38    22    23 1   
    39    23    24 2   
    40    23    25 1   
    41    25    39 1   
    42    25    40 1   
    43    25    41 1   
@<TRIPOS>SUBSTRUCTURE
     1 SUZ         1 TEMP              0 ****  ****    0 ROOT
