@<TRIPOS>MOLECULE
SV0
   73    75     1     0     0
SMALL
No Charge or Current Charge


@<TRIPOS>ATOM
      1 C2          -9.5510    -7.3970   -30.9910 c2         1 SV0      -0.318000
      2 C3          -8.2200    -7.4760   -31.2010 ce         1 SV0      -0.072200
      3 C4          -7.2920    -8.2300   -30.2430 c6         1 SV0      -0.033200
      4 C5          -6.4550    -9.2890   -31.0050 c6         1 SV0      -0.108400
      5 C6          -5.7030    -8.6790   -32.2160 c6         1 SV0       0.174300
      6 O1          -4.6560    -7.8090   -31.7670 oh         1 SV0      -0.653000
      7 C7          -6.6840    -7.9160   -33.1470 c6         1 SV0      -0.029200
      8 C8          -7.5450    -6.9000   -32.3790 ce         1 SV0      -0.070200
      9 C11         -7.6910    -5.6180   -32.8280 cf         1 SV0      -0.158000
     10 C13        -12.7110     1.2810   -30.7080 c3         1 SV0      -0.091100
     11 C14        -19.1180    -0.9800   -31.7950 c3         1 SV0      -0.101100
     12 C15        -18.2060     1.0720   -32.9620 c3         1 SV0      -0.101100
     13 F1         -15.2050     0.8000   -33.1760 f          1 SV0      -0.277000
     14 C18        -15.3180     0.1780   -31.9760 c3         1 SV0       0.196300
     15 C17        -16.5980    -0.7020   -31.9660 c3         1 SV0      -0.133400
     16 C16        -17.9590     0.0430   -31.8330 c3         1 SV0       0.188000
     17 O12        -17.9690     0.7470   -30.5910 oh         1 SV0      -0.659000
     18 C19        -14.0330    -0.6570   -31.7250 c3         1 SV0      -0.102400
     19 C21        -12.6820     0.1320   -31.7530 c3         1 SV0      -0.044700
     20 C24        -11.3700    -0.7530   -31.5320 c5         1 SV0      -0.054700
     21 C28        -10.9180    -1.7930   -32.6210 c5         1 SV0      -0.040000
     22 C23        -11.9270    -2.9540   -32.9260 c3         1 SV0      -0.079100
     23 C29         -9.6140    -2.2840   -31.8690 c5         1 SV0      -0.035500
     24 C26        -10.2040    -2.7130   -30.4910 c5         1 SV0      -0.070400
     25 C25        -11.2810    -1.6000   -30.2060 c5         1 SV0      -0.073400
     26 C30         -8.8170    -3.3550   -32.6820 c2         1 SV0      -0.082400
     27 C31         -8.4250    -2.8610   -34.0910 c6         1 SV0      -0.041200
     28 C32         -9.6010    -2.2070   -34.8840 c6         1 SV0      -0.070400
     29 C27        -10.4370    -1.1950   -33.9990 c6         1 SV0      -0.064400
     30 C22         -8.4740    -4.5690   -32.1710 cf         1 SV0      -0.186000
     31 H1         -10.0250    -7.8480   -30.1200 ha         1 SV0       0.165000
     32 H2         -10.2080    -6.8800   -31.6910 ha         1 SV0       0.165000
     33 H3          -7.8710    -8.7210   -29.4500 hc         1 SV0       0.050200
     34 H4          -6.6270    -7.5130   -29.7410 hc         1 SV0       0.050200
     35 H5          -7.1250   -10.0820   -31.3640 hc         1 SV0       0.043700
     36 H6          -5.7470    -9.7740   -30.3200 hc         1 SV0       0.043700
     37 H7          -5.2580    -9.5030   -32.7940 h1         1 SV0       0.028700
     38 H8          -4.0710    -8.3490   -31.1920 ho         1 SV0       0.437000
     39 H9          -6.1210    -7.4270   -33.9540 hc         1 SV0       0.053700
     40 H10         -7.3480    -8.6400   -33.6390 hc         1 SV0       0.053700
     41 H11         -7.1530    -5.3500   -33.7350 ha         1 SV0       0.169000
     42 H12        -13.4880     2.0170   -30.9420 hc         1 SV0       0.032700
     43 H13        -12.8960     0.8910   -29.7000 hc         1 SV0       0.032700
     44 H14        -11.7580     1.8220   -30.6940 hc         1 SV0       0.032700
     45 H15        -18.9820    -1.7060   -30.9840 hc         1 SV0       0.043867
     46 H16        -20.0820    -0.4790   -31.6430 hc         1 SV0       0.043867
     47 H17        -19.1740    -1.5360   -32.7390 hc         1 SV0       0.043867
     48 H18        -19.2140     1.4970   -32.8880 hc         1 SV0       0.043867
     49 H19        -17.4960     1.9050   -32.9060 hc         1 SV0       0.043867
     50 H20        -18.1080     0.6000   -33.9470 hc         1 SV0       0.043867
     51 H21        -15.4100     0.9440   -31.1960 h1         1 SV0       0.065700
     52 H22        -16.6100    -1.3120   -32.8780 hc         1 SV0       0.051700
     53 H23        -16.5180    -1.4120   -31.1330 hc         1 SV0       0.051700
     54 H24        -18.0510     0.0740   -29.8810 ho         1 SV0       0.437000
     55 H25        -14.1380    -1.1600   -30.7580 hc         1 SV0       0.050200
     56 H26        -14.0190    -1.4380   -32.4860 hc         1 SV0       0.050200
     57 H27        -12.6580     0.6440   -32.7410 hc         1 SV0       0.062700
     58 H28        -10.5840     0.0110   -31.4820 hc         1 SV0       0.043700
     59 H29        -12.4940    -3.2690   -32.0430 hc         1 SV0       0.035700
     60 H30        -12.6510    -2.6620   -33.6950 hc         1 SV0       0.035700
     61 H31        -11.4150    -3.8450   -33.3070 hc         1 SV0       0.035700
     62 H32         -8.9240    -1.4460   -31.7070 hc         1 SV0       0.051700
     63 H33        -10.6760    -3.7010   -30.5290 hc         1 SV0       0.044200
     64 H34         -9.4360    -2.7540   -29.7110 hc         1 SV0       0.044200
     65 H35        -10.9930    -0.9700   -29.3570 hc         1 SV0       0.039700
     66 H36        -12.2360    -2.0630   -29.9380 hc         1 SV0       0.039700
     67 H37         -8.0100    -3.6650   -34.7080 hc         1 SV0       0.045700
     68 H38         -7.6200    -2.1220   -33.9820 hc         1 SV0       0.045700
     69 H39        -10.2640    -2.9970   -35.2600 hc         1 SV0       0.040200
     70 H40         -9.2100    -1.6920   -35.7720 hc         1 SV0       0.040200
     71 H41         -9.8160    -0.3080   -33.8080 hc         1 SV0       0.041200
     72 H42        -11.3010    -0.8310   -34.5710 hc         1 SV0       0.041200
     73 H43         -8.7860    -4.8090   -31.1560 ha         1 SV0       0.176000
@<TRIPOS>BOND
     1     1     2 2   
     2     1    31 1   
     3     1    32 1   
     4     2     3 1   
     5     2     8 1   
     6     3     4 1   
     7     3    33 1   
     8     3    34 1   
     9     4     5 1   
    10     4    35 1   
    11     4    36 1   
    12     5     6 1   
    13     5     7 1   
    14     5    37 1   
    15     6    38 1   
    16     7     8 1   
    17     7    39 1   
    18     7    40 1   
    19     8     9 2   
    20     9    30 1   
    21     9    41 1   
    22    10    19 1   
    23    10    42 1   
    24    10    43 1   
    25    10    44 1   
    26    11    16 1   
    27    11    45 1   
    28    11    46 1   
    29    11    47 1   
    30    12    16 1   
    31    12    48 1   
    32    12    49 1   
    33    12    50 1   
    34    13    14 1   
    35    14    15 1   
    36    14    18 1   
    37    14    51 1   
    38    15    16 1   
    39    15    52 1   
    40    15    53 1   
    41    16    17 1   
    42    17    54 1   
    43    18    19 1   
    44    18    55 1   
    45    18    56 1   
    46    19    20 1   
    47    19    57 1   
    48    20    21 1   
    49    20    25 1   
    50    20    58 1   
    51    21    22 1   
    52    21    23 1   
    53    21    29 1   
    54    22    59 1   
    55    22    60 1   
    56    22    61 1   
    57    23    24 1   
    58    23    26 1   
    59    23    62 1   
    60    24    25 1   
    61    24    63 1   
    62    24    64 1   
    63    25    65 1   
    64    25    66 1   
    65    26    27 1   
    66    26    30 2   
    67    27    28 1   
    68    27    67 1   
    69    27    68 1   
    70    28    29 1   
    71    28    69 1   
    72    28    70 1   
    73    29    71 1   
    74    29    72 1   
    75    30    73 1   
@<TRIPOS>SUBSTRUCTURE
     1 SV0         1 TEMP              0 ****  ****    0 ROOT
