@<TRIPOS>MOLECULE
SV0
   73    75     1     0     0
SMALL
abcg2


@<TRIPOS>ATOM
      1 C2          -9.9520    -7.3640   -31.1720 c2         1 SV0      -0.318000
      2 C3          -8.6410    -7.4740   -31.3850 ce         1 SV0      -0.072200
      3 C4          -7.7450    -8.3050   -30.5020 c6         1 SV0      -0.033200
      4 C5          -6.9120    -9.2880   -31.3230 c6         1 SV0      -0.108400
      5 C6          -6.1500    -8.5910   -32.4460 c6         1 SV0       0.174300
      6 O1          -5.2060    -7.6630   -31.9480 oh         1 SV0      -0.653000
      7 C7          -7.1200    -7.8210   -33.3350 c6         1 SV0      -0.029200
      8 C8          -7.9580    -6.8560   -32.5400 ce         1 SV0      -0.070200
      9 C11         -8.0240    -5.5540   -32.8690 cf         1 SV0      -0.158000
     10 C13        -12.5730     1.5080   -31.0060 c3         1 SV0      -0.091100
     11 C14        -18.7920    -1.2980   -31.4360 c3         1 SV0      -0.101100
     12 C15        -17.9050    -0.1530   -33.4610 c3         1 SV0      -0.101100
     13 F1         -14.9120    -0.3030   -33.4050 f          1 SV0      -0.277000
     14 C18        -15.1140    -0.1510   -32.0200 c3         1 SV0       0.196300
     15 C17        -16.3380    -0.9470   -31.6100 c3         1 SV0      -0.133400
     16 C16        -17.7120    -0.3530   -31.9630 c3         1 SV0       0.188000
     17 O12        -17.8550     0.9340   -31.3750 oh         1 SV0      -0.659000
     18 C19        -13.8610    -0.6250   -31.3080 c3         1 SV0      -0.102400
     19 C21        -12.5890     0.1420   -31.6940 c3         1 SV0      -0.044700
     20 C24        -11.2750    -0.6060   -31.4050 c5         1 SV0      -0.054700
     21 C28        -10.7460    -1.5750   -32.4810 c5         1 SV0      -0.040000
     22 C23        -11.7790    -2.6260   -32.8900 c3         1 SV0      -0.079100
     23 C29         -9.5750    -2.2100   -31.6970 c5         1 SV0      -0.035500
     24 C26        -10.1820    -2.5540   -30.3430 c5         1 SV0      -0.070400
     25 C25        -11.2030    -1.4190   -30.0910 c5         1 SV0      -0.073400
     26 C30         -8.8460    -3.2280   -32.5140 c2         1 SV0      -0.082400
     27 C31         -8.2910    -2.6150   -33.7730 c6         1 SV0      -0.041200
     28 C32         -9.3600    -1.8630   -34.5790 c6         1 SV0      -0.070400
     29 C27        -10.1750    -0.8910   -33.7230 c6         1 SV0      -0.064400
     30 C22         -8.7280    -4.5140   -32.1450 cf         1 SV0      -0.186000
     31 H1         -10.4290    -7.8550   -30.3320 ha         1 SV0       0.165000
     32 H2         -10.5910    -6.7880   -31.8300 ha         1 SV0       0.165000
     33 H3          -8.3360    -8.8360   -29.7550 hc         1 SV0       0.050200
     34 H4          -7.0720    -7.6360   -29.9560 hc         1 SV0       0.050200
     35 H5          -7.5660   -10.0450   -31.7660 hc         1 SV0       0.043700
     36 H6          -6.2160    -9.8250   -30.6720 hc         1 SV0       0.043700
     37 H7          -5.6520    -9.3550   -33.0580 h1         1 SV0       0.028700
     38 H8          -4.6010    -8.1340   -31.3660 ho         1 SV0       0.437000
     39 H9          -6.5760    -7.3010   -34.1280 hc         1 SV0       0.053700
     40 H10         -7.7700    -8.5550   -33.8230 hc         1 SV0       0.053700
     41 H11         -7.4640    -5.2520   -33.7480 ha         1 SV0       0.169000
     42 H12        -13.4870     2.0750   -31.1930 hc         1 SV0       0.032700
     43 H13        -12.4700     1.3990   -29.9240 hc         1 SV0       0.032700
     44 H14        -11.7380     2.1150   -31.3600 hc         1 SV0       0.032700
     45 H15        -18.6980    -1.4450   -30.3570 hc         1 SV0       0.043867
     46 H16        -19.7880    -0.9010   -31.6390 hc         1 SV0       0.043867
     47 H17        -18.7200    -2.2790   -31.9080 hc         1 SV0       0.043867
     48 H18        -18.9270     0.1660   -33.6710 hc         1 SV0       0.043867
     49 H19        -17.2310     0.6000   -33.8670 hc         1 SV0       0.043867
     50 H20        -17.7310    -1.0860   -33.9980 hc         1 SV0       0.043867
     51 H21        -15.2770     0.9170   -31.8470 h1         1 SV0       0.065700
     52 H22        -16.2530    -1.9560   -32.0230 hc         1 SV0       0.051700
     53 H23        -16.2990    -1.0720   -30.5210 hc         1 SV0       0.051700
     54 H24        -17.8150     0.8330   -30.4170 ho         1 SV0       0.437000
     55 H25        -14.0330    -0.5250   -30.2330 hc         1 SV0       0.050200
     56 H26        -13.7540    -1.6960   -31.4950 hc         1 SV0       0.050200
     57 H27        -12.6130     0.3210   -32.7750 hc         1 SV0       0.062700
     58 H28        -10.5030     0.1710   -31.3360 hc         1 SV0       0.043700
     59 H29        -12.2230    -3.1340   -32.0330 hc         1 SV0       0.035700
     60 H30        -12.5910    -2.1680   -33.4580 hc         1 SV0       0.035700
     61 H31        -11.3410    -3.4000   -33.5210 hc         1 SV0       0.035700
     62 H32         -8.8610    -1.3880   -31.5300 hc         1 SV0       0.051700
     63 H33        -10.6890    -3.5210   -30.3730 hc         1 SV0       0.044200
     64 H34         -9.4250    -2.6240   -29.5610 hc         1 SV0       0.044200
     65 H35        -10.9010    -0.7850   -29.2560 hc         1 SV0       0.039700
     66 H36        -12.1720    -1.8410   -29.8200 hc         1 SV0       0.039700
     67 H37         -7.8070    -3.3510   -34.4150 hc         1 SV0       0.045700
     68 H38         -7.5130    -1.8990   -33.4830 hc         1 SV0       0.045700
     69 H39        -10.0230    -2.5860   -35.0590 hc         1 SV0       0.040200
     70 H40         -8.8730    -1.3160   -35.3900 hc         1 SV0       0.040200
     71 H41         -9.5300    -0.0640   -33.4030 hc         1 SV0       0.041200
     72 H42        -10.9730    -0.4490   -34.3280 hc         1 SV0       0.041200
     73 H43         -9.1850    -4.8100   -31.2070 ha         1 SV0       0.176000
@<TRIPOS>BOND
     1     1     2 2   
     2     1    31 1   
     3     1    32 1   
     4     2     3 1   
     5     2     8 1   
     6     3     4 1   
     7     3    33 1   
     8     3    34 1   
     9     4     5 1   
    10     4    35 1   
    11     4    36 1   
    12     5     6 1   
    13     5     7 1   
    14     5    37 1   
    15     6    38 1   
    16     7     8 1   
    17     7    39 1   
    18     7    40 1   
    19     8     9 2   
    20     9    30 1   
    21     9    41 1   
    22    10    19 1   
    23    10    42 1   
    24    10    43 1   
    25    10    44 1   
    26    11    16 1   
    27    11    45 1   
    28    11    46 1   
    29    11    47 1   
    30    12    16 1   
    31    12    48 1   
    32    12    49 1   
    33    12    50 1   
    34    13    14 1   
    35    14    15 1   
    36    14    18 1   
    37    14    51 1   
    38    15    16 1   
    39    15    52 1   
    40    15    53 1   
    41    16    17 1   
    42    17    54 1   
    43    18    19 1   
    44    18    55 1   
    45    18    56 1   
    46    19    20 1   
    47    19    57 1   
    48    20    21 1   
    49    20    25 1   
    50    20    58 1   
    51    21    22 1   
    52    21    23 1   
    53    21    29 1   
    54    22    59 1   
    55    22    60 1   
    56    22    61 1   
    57    23    24 1   
    58    23    26 1   
    59    23    62 1   
    60    24    25 1   
    61    24    63 1   
    62    24    64 1   
    63    25    65 1   
    64    25    66 1   
    65    26    27 1   
    66    26    30 2   
    67    27    28 1   
    68    27    67 1   
    69    27    68 1   
    70    28    29 1   
    71    28    69 1   
    72    28    70 1   
    73    29    71 1   
    74    29    72 1   
    75    30    73 1   
@<TRIPOS>SUBSTRUCTURE
     1 SV0         1 TEMP              0 ****  ****    0 ROOT
