@<TRIPOS>MOLECULE
SV1
   38    39     1     0     0
SMALL
abcg2


@<TRIPOS>ATOM
      1 O1           0.4390    -0.2960     0.7640 o          1 SV1      -0.478000
      2 C8           0.3320    -0.0300    -0.4060 c          1 SV1       0.589100
      3 C7           1.4870     0.0530    -1.3790 c3         1 SV1      -0.089100
      4 C6           2.8140     0.2370    -0.7000 ca         1 SV1      -0.089300
      5 C5           3.4510     1.4710    -0.7790 ca         1 SV1      -0.072000
      6 C4           4.6620     1.7120    -0.1550 ca         1 SV1      -0.158000
      7 C3           5.2950     0.7110     0.5940 ca         1 SV1       0.291000
      8 N            6.5260     0.9240     1.1670 nv         1 SV1      -1.076000
      9 C2           4.6560    -0.5250     0.6900 ca         1 SV1      -0.128000
     10 C1           3.4430    -0.7640     0.0500 ca         1 SV1      -0.124600
     11 C            2.8350    -2.1020     0.1850 c          1 SV1       0.591500
     12 O            3.2290    -2.9510     0.9520 o          1 SV1      -0.519100
     13 O2          -0.8250     0.1930    -1.0090 os         1 SV1      -0.455100
     14 C9          -2.0220     0.0720    -0.2270 c3         1 SV1       0.166600
     15 C10         -3.2040     0.3050    -1.1510 c3         1 SV1      -0.036100
     16 C11         -4.4900     0.1780    -0.3810 ca         1 SV1      -0.088300
     17 C16         -5.0800     1.2940     0.2080 ca         1 SV1      -0.103500
     18 C15         -6.2480     1.1720     0.9510 ca         1 SV1      -0.108500
     19 C14         -6.8410    -0.0720     1.1170 ca         1 SV1      -0.106000
     20 C13         -6.2590    -1.1920     0.5360 ca         1 SV1      -0.108500
     21 C12         -5.0930    -1.0650    -0.2050 ca         1 SV1      -0.103500
     22 H            1.9900    -2.3210    -0.4860 h4         1 SV1      -0.013800
     23 H72          1.4600    -0.8550    -1.9900 hc         1 SV1       0.077700
     24 H71          1.3100     0.8730    -2.0770 hc         1 SV1       0.077700
     25 H5           2.9880     2.2710    -1.3430 ha         1 SV1       0.111000
     26 H4           5.1250     2.6870    -0.2470 ha         1 SV1       0.114000
     27 HN1          6.7720     1.8830     1.3490 hn         1 SV1       0.454500
     28 HN2          6.7700     0.3170     1.9320 hn         1 SV1       0.454500
     29 H2           5.1180    -1.3200     1.2640 ha         1 SV1       0.133000
     30 H91C        -2.0730    -0.9230     0.2220 h1         1 SV1       0.054700
     31 H92C        -2.0130     0.8070     0.5820 h1         1 SV1       0.054700
     32 H101        -3.1300     1.2980    -1.6000 hc         1 SV1       0.059700
     33 H102        -3.1800    -0.4240    -1.9650 hc         1 SV1       0.059700
     34 H16         -4.6280     2.2700     0.0780 ha         1 SV1       0.112000
     35 H12         -4.6470    -1.9440    -0.6590 ha         1 SV1       0.112000
     36 H15         -6.6950     2.0510     1.3970 ha         1 SV1       0.114000
     37 H14         -7.7520    -0.1690     1.6930 ha         1 SV1       0.114000
     38 H13         -6.7160    -2.1660     0.6580 ha         1 SV1       0.114000
@<TRIPOS>BOND
     1     1     2 2   
     2     2     3 1   
     3     2    13 1   
     4     3     4 1   
     5     3    23 1   
     6     3    24 1   
     7     4     5 ar  
     8     4    10 ar  
     9     5     6 ar  
    10     5    25 1   
    11     6     7 ar  
    12     6    26 1   
    13     7     8 1   
    14     7     9 ar  
    15     8    27 1   
    16     8    28 1   
    17     9    10 ar  
    18     9    29 1   
    19    10    11 1   
    20    11    12 2   
    21    11    22 1   
    22    13    14 1   
    23    14    15 1   
    24    14    30 1   
    25    14    31 1   
    26    15    16 1   
    27    15    32 1   
    28    15    33 1   
    29    16    17 ar  
    30    16    21 ar  
    31    17    18 ar  
    32    17    34 1   
    33    18    19 ar  
    34    18    36 1   
    35    19    20 ar  
    36    19    37 1   
    37    20    21 ar  
    38    20    38 1   
    39    21    35 1   
@<TRIPOS>SUBSTRUCTURE
     1 SV1         1 TEMP              0 ****  ****    0 ROOT
