@<TRIPOS>MOLECULE
SV1
   38    39     1     0     0
SMALL
No Charge or Current Charge


@<TRIPOS>ATOM
      1 O1           0.2870    -2.0830     0.3030 o          1 SV1      -0.478000
      2 C8           0.3680    -1.2930    -0.6280 c          1 SV1       0.589100
      3 C7           1.6280    -1.1100    -1.4810 c3         1 SV1      -0.089100
      4 C6           2.6970    -0.3100    -0.7250 ca         1 SV1      -0.089300
      5 C5           2.7690     1.0780    -0.9650 ca         1 SV1      -0.072000
      6 C4           3.7200     1.8750    -0.3090 ca         1 SV1      -0.158000
      7 C3           4.6120     1.2970     0.6000 ca         1 SV1       0.291000
      8 N            5.5400     2.0770     1.2390 nv         1 SV1      -1.076000
      9 C2           4.5490    -0.0800     0.8540 ca         1 SV1      -0.128000
     10 C1           3.5970    -0.9040     0.2040 ca         1 SV1      -0.124600
     11 C            3.5720    -2.3850     0.5290 c          1 SV1       0.591500
     12 O            4.3520    -2.9160     1.3160 o          1 SV1      -0.519100
     13 O2          -0.6470    -0.4640    -1.0310 os         1 SV1      -0.455100
     14 C9          -1.8900    -0.5210    -0.3090 c3         1 SV1       0.166600
     15 C10         -2.8490     0.5000    -0.9470 c3         1 SV1      -0.036100
     16 C11         -4.2040     0.5230    -0.2520 ca         1 SV1      -0.088300
     17 C16         -4.4280     1.3830     0.8410 ca         1 SV1      -0.103500
     18 C15         -5.6760     1.3990     1.4870 ca         1 SV1      -0.108500
     19 C14         -6.7080     0.5540     1.0450 ca         1 SV1      -0.106000
     20 C13         -6.4900    -0.3080    -0.0430 ca         1 SV1      -0.108500
     21 C12         -5.2420    -0.3240    -0.6890 ca         1 SV1      -0.103500
     22 H            2.8040    -3.0040     0.0200 h4         1 SV1      -0.013800
     23 H72          2.0100    -2.0920    -1.7770 hc         1 SV1       0.077700
     24 H71          1.3540    -0.5700    -2.3940 hc         1 SV1       0.077700
     25 H5           2.0820     1.5480    -1.6660 ha         1 SV1       0.111000
     26 H4           3.7580     2.9420    -0.5090 ha         1 SV1       0.114000
     27 HN1          5.6720     3.0450     0.9510 hn         1 SV1       0.454500
     28 HN2          6.2790     1.6450     1.7900 hn         1 SV1       0.454500
     29 H2           5.2450    -0.5150     1.5670 ha         1 SV1       0.133000
     30 H91C        -2.3330    -1.5250    -0.3690 h1         1 SV1       0.054700
     31 H92C        -1.7410    -0.2700     0.7490 h1         1 SV1       0.054700
     32 H101        -2.3880     1.4950    -0.9090 hc         1 SV1       0.059700
     33 H102        -2.9730     0.2580    -2.0100 hc         1 SV1       0.059700
     34 H16         -3.6340     2.0400     1.1910 ha         1 SV1       0.112000
     35 H12         -5.0810    -0.9960    -1.5300 ha         1 SV1       0.112000
     36 H15         -5.8430     2.0660     2.3300 ha         1 SV1       0.114000
     37 H14         -7.6740     0.5670     1.5450 ha         1 SV1       0.114000
     38 H13         -7.2880    -0.9630    -0.3860 ha         1 SV1       0.114000
@<TRIPOS>BOND
     1     1     2 2   
     2     2     3 1   
     3     2    13 1   
     4     3     4 1   
     5     3    23 1   
     6     3    24 1   
     7     4     5 ar  
     8     4    10 ar  
     9     5     6 ar  
    10     5    25 1   
    11     6     7 ar  
    12     6    26 1   
    13     7     8 1   
    14     7     9 ar  
    15     8    27 1   
    16     8    28 1   
    17     9    10 ar  
    18     9    29 1   
    19    10    11 1   
    20    11    12 2   
    21    11    22 1   
    22    13    14 1   
    23    14    15 1   
    24    14    30 1   
    25    14    31 1   
    26    15    16 1   
    27    15    32 1   
    28    15    33 1   
    29    16    17 ar  
    30    16    21 ar  
    31    17    18 ar  
    32    17    34 1   
    33    18    19 ar  
    34    18    36 1   
    35    19    20 ar  
    36    19    37 1   
    37    20    21 ar  
    38    20    38 1   
    39    21    35 1   
@<TRIPOS>SUBSTRUCTURE
     1 SV1         1 TEMP              0 ****  ****    0 ROOT
