@<TRIPOS>MOLECULE
SV2
   42    43     1     0     0
SMALL
abcg2


@<TRIPOS>ATOM
      1 OAE        -10.5150   -21.2240   -15.5290 o          1 SV2      -0.910833
      2 PAZ        -10.0060   -19.8640   -15.0340 p5         1 SV2       1.328000
      3 OAF        -10.2780   -19.5770   -13.5680 o          1 SV2      -0.910833
      4 OAC        -10.4600   -18.7280   -15.9830 o          1 SV2      -0.910833
      5 CAL         -8.1650   -19.8690   -15.1940 c3         1 SV2      -0.157400
      6 OAR         -7.7910   -19.9630   -16.5690 os         1 SV2      -0.421000
      7 CAJ         -6.6710   -19.1930   -16.9680 c3         1 SV2       0.165600
      8 CAX         -6.8930   -18.7270   -18.4020 c3         1 SV2      -0.097700
      9 CAK         -5.6190   -18.1140   -18.9650 c3         1 SV2       0.165600
     10 OAS         -5.8490   -17.7390   -20.3070 os         1 SV2      -0.421000
     11 CAM         -4.8520   -16.8750   -20.8530 c3         1 SV2      -0.157400
     12 PBA         -5.3720   -16.2300   -22.5150 p5         1 SV2       1.328000
     13 OAG         -6.7240   -15.5470   -22.2810 o          1 SV2      -0.910833
     14 OAH         -4.2480   -15.2560   -22.8820 o          1 SV2      -0.910833
     15 OAD         -5.4580   -17.4470   -23.4410 o          1 SV2      -0.910833
     16 CAN         -8.0790   -17.7370   -18.4670 c3         1 SV2       0.094600
     17 N9          -9.0070   -18.0020   -19.5630 na         1 SV2      -0.199500
     18 C8          -8.8790   -17.6150   -20.8860 cc         1 SV2       0.434400
     19 N7          -9.8050   -18.1430   -21.6520 nd         1 SV2      -0.654000
     20 C5         -10.5810   -18.9250   -20.8070 cd         1 SV2       0.051500
     21 C4         -10.0920   -18.8290   -19.5210 cc         1 SV2       0.215000
     22 N3         -10.6390   -19.4700   -18.4580 na         1 SV2      -0.921200
     23 C2         -11.7020   -20.2780   -18.7480 cc         1 SV2       0.867100
     24 N2         -12.2470   -20.9180   -17.6900 nv         1 SV2      -1.071200
     25 N1         -12.2170   -20.4430   -19.9590 nd         1 SV2      -0.905100
     26 C6         -11.7230   -19.7700   -21.0590 c          1 SV2       0.661000
     27 O6         -12.2460   -19.9170   -22.1810 o          1 SV2      -0.705100
     28 H3          -7.7190   -20.6910   -14.6180 h1         1 SV2      -0.014800
     29 H4          -7.7950   -18.9300   -14.7700 h1         1 SV2      -0.014800
     30 H5          -5.7500   -19.7850   -16.8960 h1         1 SV2      -0.017050
     31 H6          -6.5590   -18.3230   -16.3090 h1         1 SV2      -0.017050
     32 H7          -7.1460   -19.6070   -19.0000 hc         1 SV2       0.083700
     33 H8          -4.7870   -18.8290   -18.9020 h1         1 SV2      -0.017050
     34 H9          -5.3400   -17.2300   -18.3730 h1         1 SV2      -0.017050
     35 H10         -3.8960   -17.4110   -20.9370 h1         1 SV2      -0.014800
     36 H11         -4.6960   -16.0250   -20.1750 h1         1 SV2      -0.014800
     37 H14         -7.7170   -16.7160   -18.5820 h1         1 SV2       0.070700
     38 H15         -8.6560   -17.7940   -17.5460 h1         1 SV2       0.070700
     39 H16         -8.0820   -16.9540   -21.2090 h5         1 SV2       0.145100
     40 H17        -10.4700   -19.1780   -17.4190 hn         1 SV2       0.616000
     41 H18        -12.9350   -21.6190   -17.9150 hn         1 SV2       0.503500
     42 H19        -11.6650   -21.0520   -16.8420 hn         1 SV2       0.503500
@<TRIPOS>BOND
     1     1     2 1   
     2     2     3 1   
     3     2     4 1   
     4     2     5 1   
     5     5     6 1   
     6     5    28 1   
     7     5    29 1   
     8     6     7 1   
     9     7     8 1   
    10     7    30 1   
    11     7    31 1   
    12     8     9 1   
    13     8    16 1   
    14     8    32 1   
    15     9    10 1   
    16     9    33 1   
    17     9    34 1   
    18    10    11 1   
    19    11    12 1   
    20    11    35 1   
    21    11    36 1   
    22    12    13 1   
    23    12    14 1   
    24    12    15 1   
    25    16    17 1   
    26    16    37 1   
    27    16    38 1   
    28    17    18 1   
    29    17    21 1   
    30    18    19 2   
    31    18    39 1   
    32    19    20 1   
    33    20    21 2   
    34    20    26 1   
    35    21    22 1   
    36    22    23 1   
    37    22    40 1   
    38    23    24 1   
    39    23    25 2   
    40    24    41 1   
    41    24    42 1   
    42    25    26 1   
    43    26    27 2   
@<TRIPOS>SUBSTRUCTURE
     1 SV2         1 TEMP              0 ****  ****    0 ROOT
