@<TRIPOS>MOLECULE
SV2
   42    43     1     0     0
SMALL
No Charge or Current Charge


@<TRIPOS>ATOM
      1 OAE        -10.7920   -20.4580   -14.9550 o          1 SV2      -0.910833
      2 PAZ         -9.5210   -19.7020   -15.1460 p5         1 SV2       1.328000
      3 OAF         -8.9380   -19.3220   -13.8260 o          1 SV2      -0.910833
      4 OAC         -9.8300   -18.4870   -15.9560 o          1 SV2      -0.910833
      5 CAL         -8.3030   -20.8040   -16.0870 c3         1 SV2      -0.157400
      6 OAR         -7.9000   -20.3060   -17.3900 os         1 SV2      -0.421000
      7 CAJ         -6.9410   -19.2360   -17.3630 c3         1 SV2       0.165600
      8 CAX         -6.9020   -18.5640   -18.7540 c3         1 SV2      -0.097700
      9 CAK         -5.7300   -17.5590   -18.8150 c3         1 SV2       0.165600
     10 OAS         -5.5830   -17.1140   -20.1750 os         1 SV2      -0.421000
     11 CAM         -4.5170   -16.1510   -20.3850 c3         1 SV2      -0.157400
     12 PBA         -4.3070   -15.5650   -22.1720 p5         1 SV2       1.328000
     13 OAG         -5.5700   -14.9160   -22.6370 o          1 SV2      -0.910833
     14 OAH         -3.1870   -14.5760   -22.2200 o          1 SV2      -0.910833
     15 OAD         -3.9810   -16.7340   -23.0460 o          1 SV2      -0.910833
     16 CAN         -8.2550   -17.8820   -19.1110 c3         1 SV2       0.094600
     17 N9          -9.1700   -18.7200   -19.9070 na         1 SV2      -0.199500
     18 C8          -9.0440   -19.0220   -21.2580 cc         1 SV2       0.434400
     19 N7         -10.0970   -19.7210   -21.7160 nd         1 SV2      -0.654000
     20 C5         -10.9390   -19.8840   -20.6120 cd         1 SV2       0.051500
     21 C4         -10.3540   -19.2920   -19.5500 cc         1 SV2       0.215000
     22 N3         -10.9390   -19.2540   -18.2940 na         1 SV2      -0.921200
     23 C2         -12.1160   -19.8740   -18.1520 cc         1 SV2       0.867100
     24 N2         -12.6230   -19.8790   -16.9730 nv         1 SV2      -1.071200
     25 N1         -12.7530   -20.4620   -19.1060 nd         1 SV2      -0.905100
     26 C6         -12.2570   -20.5310   -20.4060 c          1 SV2       0.661000
     27 O6         -12.9170   -21.1030   -21.2650 o          1 SV2      -0.705100
     28 H3          -8.7970   -21.7760   -16.2140 h1         1 SV2      -0.014800
     29 H4          -7.4200   -20.9740   -15.4570 h1         1 SV2      -0.014800
     30 H5          -5.9480   -19.6330   -17.1150 h1         1 SV2      -0.017050
     31 H6          -7.2010   -18.4830   -16.6080 h1         1 SV2      -0.017050
     32 H7          -6.6850   -19.3430   -19.4940 hc         1 SV2       0.083700
     33 H8          -4.8070   -18.0520   -18.4780 h1         1 SV2      -0.017050
     34 H9          -5.9340   -16.7120   -18.1460 h1         1 SV2      -0.017050
     35 H10         -3.5590   -16.5840   -20.0690 h1         1 SV2      -0.014800
     36 H11         -4.6950   -15.2610   -19.7680 h1         1 SV2      -0.014800
     37 H14         -8.0640   -16.9760   -19.7010 h1         1 SV2       0.070700
     38 H15         -8.7600   -17.5500   -18.1960 h1         1 SV2       0.070700
     39 H16         -8.1880   -18.6940   -21.8400 h5         1 SV2       0.145100
     40 H17        -10.4910   -18.8530   -17.4580 hn         1 SV2       0.616000
     41 H18        -13.3880   -20.5310   -16.9230 hn         1 SV2       0.503500
     42 H19        -11.9300   -20.0060   -16.2280 hn         1 SV2       0.503500
@<TRIPOS>BOND
     1     1     2 1   
     2     2     3 1   
     3     2     4 1   
     4     2     5 1   
     5     5     6 1   
     6     5    28 1   
     7     5    29 1   
     8     6     7 1   
     9     7     8 1   
    10     7    30 1   
    11     7    31 1   
    12     8     9 1   
    13     8    16 1   
    14     8    32 1   
    15     9    10 1   
    16     9    33 1   
    17     9    34 1   
    18    10    11 1   
    19    11    12 1   
    20    11    35 1   
    21    11    36 1   
    22    12    13 1   
    23    12    14 1   
    24    12    15 1   
    25    16    17 1   
    26    16    37 1   
    27    16    38 1   
    28    17    18 1   
    29    17    21 1   
    30    18    19 2   
    31    18    39 1   
    32    19    20 1   
    33    20    21 2   
    34    20    26 1   
    35    21    22 1   
    36    22    23 1   
    37    22    40 1   
    38    23    24 1   
    39    23    25 2   
    40    24    41 1   
    41    24    42 1   
    42    25    26 1   
    43    26    27 2   
@<TRIPOS>SUBSTRUCTURE
     1 SV2         1 TEMP              0 ****  ****    0 ROOT
