@<TRIPOS>MOLECULE
SV4
   31    32     1     0     0
SMALL
abcg2


@<TRIPOS>ATOM
      1 N1          49.1380   117.5290    31.5370 nh         1 SV4      -0.789300
      2 C4          52.0900   115.5900    31.1080 ca         1 SV4       0.359900
      3 C5          50.4720   117.1360    31.6250 ca         1 SV4       0.585900
      4 C6          48.8810   118.7360    30.7680 c3         1 SV4       0.216800
      5 C7          47.4720   119.2970    30.9620 c3         1 SV4      -0.083400
      6 C8          46.8640   119.0820    32.3460 c3         1 SV4       0.177800
      7 C10         48.1130   116.5020    31.4700 c3         1 SV4       0.209800
      8 N           50.8260   115.9900    31.0540 nb         1 SV4      -0.728000
      9 C1          51.3980   117.9340    32.3340 ca         1 SV4      -0.138300
     10 C2          52.7160   117.5070    32.3460 ca         1 SV4      -0.066000
     11 C3          53.0880   116.3250    31.7190 ca         1 SV4      -0.188000
     12 C9          47.1080   116.6500    32.6060 c3         1 SV4       0.158800
     13 N2          46.2190   117.7830    32.4490 n7         1 SV4      -0.876400
     14 H1          52.3150   114.6390    30.6360 h4         1 SV4       0.016100
     15 H2          49.0470   118.5590    29.6950 h1         1 SV4       0.033700
     16 H3          49.6050   119.4950    31.0620 h1         1 SV4       0.033700
     17 H4          47.5150   120.3670    30.7440 hc         1 SV4       0.050200
     18 H5          46.7840   118.8660    30.2320 hc         1 SV4       0.050200
     19 H6          47.6240   119.2560    33.1250 h1         1 SV4       0.028700
     20 H7          46.0870   119.8330    32.4990 h1         1 SV4       0.028700
     21 H8          47.5980   116.5080    30.5020 h1         1 SV4       0.056200
     22 H9          48.5850   115.5250    31.5580 h1         1 SV4       0.056200
     23 H10         49.9910   119.0230    33.5310 hc         1 SV4       0.043700
     24 H11         51.6860   119.3220    33.9350 hc         1 SV4       0.043700
     25 H12         50.9790   120.0540    32.5080 hc         1 SV4       0.043700
     26 H13         53.4560   118.0880    32.8860 ha         1 SV4       0.114000
     27 H14         54.1110   115.9760    31.7270 ha         1 SV4       0.124000
     28 H15         46.4930   115.7460    32.6420 h1         1 SV4       0.032200
     29 H16         47.6850   116.6810    33.5450 h1         1 SV4       0.032200
     30 H17         45.5740   117.7990    33.2280 hn         1 SV4       0.411000
     31 C           50.9910   119.1470    33.1150 c3         1 SV4      -0.036800
@<TRIPOS>BOND
     1     1     3 1   
     2     1     4 1   
     3     1     7 1   
     4     2     8 ar  
     5     2    11 ar  
     6     2    14 1   
     7     3     8 ar  
     8     3     9 ar  
     9     4     5 1   
    10     4    15 1   
    11     4    16 1   
    12     5     6 1   
    13     5    17 1   
    14     5    18 1   
    15     6    13 1   
    16     6    19 1   
    17     6    20 1   
    18     7    12 1   
    19     7    21 1   
    20     7    22 1   
    21     9    10 ar  
    22     9    31 1   
    23    10    11 ar  
    24    10    26 1   
    25    11    27 1   
    26    12    13 1   
    27    12    28 1   
    28    12    29 1   
    29    13    30 1   
    30    23    31 1   
    31    24    31 1   
    32    25    31 1   
@<TRIPOS>SUBSTRUCTURE
     1 SV4         1 TEMP              0 ****  ****    0 ROOT
