@<TRIPOS>MOLECULE
SV4
   31    32     1     0     0
SMALL
No Charge or Current Charge


@<TRIPOS>ATOM
      1 N1          49.2470   117.5470    31.8240 nh         1 SV4      -0.789300
      2 C4          51.9900   115.6520    30.6030 ca         1 SV4       0.359900
      3 C5          50.5870   117.1470    31.6700 ca         1 SV4       0.585900
      4 C6          48.8620   118.9480    31.5340 c3         1 SV4       0.216800
      5 C7          47.5400   119.1610    30.7660 c3         1 SV4      -0.083400
      6 C8          46.2770   119.0840    31.6480 c3         1 SV4       0.177800
      7 C10         48.1880   116.5210    32.0520 c3         1 SV4       0.209800
      8 N           50.7400   116.1050    30.8300 nb         1 SV4      -0.728000
      9 C1          51.6760   117.7740    32.3360 ca         1 SV4      -0.138300
     10 C2          52.9740   117.2910    32.0850 ca         1 SV4      -0.066000
     11 C3          53.1270   116.2140    31.2010 ca         1 SV4      -0.188000
     12 C9          46.9210   116.9620    32.8470 c3         1 SV4       0.158800
     13 N2          45.9250   117.7010    32.0240 n7         1 SV4      -0.876400
     14 H1          52.0840   114.8110    29.9170 h4         1 SV4       0.016100
     15 H2          49.6570   119.4000    30.9260 h1         1 SV4       0.033700
     16 H3          48.8210   119.5210    32.4710 h1         1 SV4       0.033700
     17 H4          47.5720   120.1680    30.3330 hc         1 SV4       0.050200
     18 H5          47.4680   118.4650    29.9230 hc         1 SV4       0.050200
     19 H6          46.4200   119.7050    32.5440 h1         1 SV4       0.028700
     20 H7          45.4430   119.5220    31.0830 h1         1 SV4       0.028700
     21 H8          47.8650   116.1000    31.0900 h1         1 SV4       0.056200
     22 H9          48.6320   115.6930    32.6210 h1         1 SV4       0.056200
     23 H10         50.6250   118.7450    33.9810 hc         1 SV4       0.043700
     24 H11         52.3640   119.0330    33.9800 hc         1 SV4       0.043700
     25 H12         51.3390   119.8720    32.8090 hc         1 SV4       0.043700
     26 H13         53.8420   117.7350    32.5680 ha         1 SV4       0.114000
     27 H14         54.1120   115.8110    30.9820 ha         1 SV4       0.124000
     28 H15         46.4460   116.0460    33.2240 h1         1 SV4       0.032200
     29 H16         47.2230   117.5480    33.7260 h1         1 SV4       0.032200
     30 H17         45.0520   117.7480    32.5660 hn         1 SV4       0.411000
     31 C           51.4890   118.9180    33.3290 c3         1 SV4      -0.036800
@<TRIPOS>BOND
     1     1     3 1   
     2     1     4 1   
     3     1     7 1   
     4     2     8 ar  
     5     2    11 ar  
     6     2    14 1   
     7     3     8 ar  
     8     3     9 ar  
     9     4     5 1   
    10     4    15 1   
    11     4    16 1   
    12     5     6 1   
    13     5    17 1   
    14     5    18 1   
    15     6    13 1   
    16     6    19 1   
    17     6    20 1   
    18     7    12 1   
    19     7    21 1   
    20     7    22 1   
    21     9    10 ar  
    22     9    31 1   
    23    10    11 ar  
    24    10    26 1   
    25    11    27 1   
    26    12    13 1   
    27    12    28 1   
    28    12    29 1   
    29    13    30 1   
    30    23    31 1   
    31    24    31 1   
    32    25    31 1   
@<TRIPOS>SUBSTRUCTURE
     1 SV4         1 TEMP              0 ****  ****    0 ROOT
