@<TRIPOS>MOLECULE
SV5
   29    31     1     0     0
SMALL
No Charge or Current Charge


@<TRIPOS>ATOM
      1 C1         196.7990   -30.9550    78.8930 ca         1 SV5      -0.109000
      2 C2         197.4270   -31.6370    79.9500 ca         1 SV5      -0.094500
      3 C3         196.6670   -32.1310    81.0310 ca         1 SV5      -0.116300
      4 C7         199.8850   -32.8880    82.2730 cc         1 SV5      -0.200000
      5 C8         200.8320   -32.0760    82.8540 cd         1 SV5      -0.107000
      6 C9         200.1800   -31.0240    83.5340 cd         1 SV5      -0.243600
      7 C10        198.8450   -31.1960    83.3680 cc         1 SV5      -0.047800
      8 C11        197.8810   -30.2970    83.9230 cc         1 SV5      -0.259200
      9 C12        198.3500   -29.2230    84.6570 cd         1 SV5      -0.035400
     10 C13        200.7160   -29.8840    84.3150 c          1 SV5       0.598600
     11 O          201.9040   -29.6720    84.5040 o          1 SV5      -0.564000
     12 N1         199.7260   -29.0610    84.8230 ns         1 SV5      -0.387100
     13 N          198.6370   -32.3370    82.5970 na         1 SV5       0.023000
     14 C6         197.3290   -32.8790    82.1890 c3         1 SV5       0.120900
     15 C4         195.2700   -31.9390    81.0340 ca         1 SV5      -0.094500
     16 C5         194.6440   -31.2560    79.9770 ca         1 SV5      -0.109000
     17 C          195.4080   -30.7630    78.9060 ca         1 SV5      -0.101000
     18 H1         197.3920   -30.5750    78.0640 ha         1 SV5       0.116000
     19 H2         198.5050   -31.7810    79.9220 ha         1 SV5       0.116500
     20 H3         199.9920   -33.7840    81.6750 h4         1 SV5       0.146000
     21 H4         201.9080   -32.2210    82.7970 ha         1 SV5       0.149000
     22 H5         196.8170   -30.4590    83.7640 ha         1 SV5       0.201000
     23 H7         197.7260   -28.4670    85.1310 h4         1 SV5       0.196000
     24 H8         196.6690   -32.8670    83.0640 h1         1 SV5       0.065200
     25 H9         197.4660   -33.9280    81.9000 h1         1 SV5       0.065200
     26 H10        194.6670   -32.3180    81.8570 ha         1 SV5       0.116500
     27 H11        193.5660   -31.1100    79.9870 ha         1 SV5       0.116000
     28 H12        194.9230   -30.2340    78.0880 ha         1 SV5       0.115000
     29 H6         200.0790   -28.2770    85.3600 hn         1 SV5       0.321500
@<TRIPOS>BOND
     1     1     2 ar  
     2     1    17 ar  
     3     1    18 1   
     4     2     3 ar  
     5     2    19 1   
     6     3    14 1   
     7     3    15 ar  
     8     4     5 2   
     9     4    13 1   
    10     4    20 1   
    11     5     6 1   
    12     5    21 1   
    13     6     7 2   
    14     6    10 1   
    15     7     8 1   
    16     7    13 1   
    17     8     9 2   
    18     8    22 1   
    19     9    12 1   
    20     9    23 1   
    21    10    11 2   
    22    10    12 1   
    23    12    29 1   
    24    13    14 1   
    25    14    24 1   
    26    14    25 1   
    27    15    16 ar  
    28    15    26 1   
    29    16    17 ar  
    30    16    27 1   
    31    17    28 1   
@<TRIPOS>SUBSTRUCTURE
     1 SV5         1 TEMP              0 ****  ****    0 ROOT
