@<TRIPOS>MOLECULE
SV5
   29    31     1     0     0
SMALL
abcg2


@<TRIPOS>ATOM
      1 C1         196.8490   -30.8870    79.0170 ca         1 SV5      -0.109000
      2 C2         197.4660   -31.6180    80.0220 ca         1 SV5      -0.094500
      3 C3         196.7200   -32.1290    81.0810 ca         1 SV5      -0.116300
      4 C7         199.8770   -32.9240    82.3400 cc         1 SV5      -0.200000
      5 C8         200.8390   -32.1140    82.8690 cd         1 SV5      -0.107000
      6 C9         200.1530   -31.0340    83.4890 cd         1 SV5      -0.243600
      7 C10        198.7870   -31.2430    83.3020 cc         1 SV5      -0.047800
      8 C11        197.8040   -30.3490    83.7960 cc         1 SV5      -0.259200
      9 C12        198.2790   -29.2750    84.4690 cd         1 SV5      -0.035400
     10 C13        200.6360   -29.8900    84.2050 c          1 SV5       0.598600
     11 O          201.8130   -29.6140    84.4260 o          1 SV5      -0.564000
     12 N1         199.6160   -29.0720    84.6540 ns         1 SV5      -0.387100
     13 N          198.6360   -32.3970    82.6080 na         1 SV5       0.023000
     14 C6         197.3720   -32.9460    82.1690 c3         1 SV5       0.120900
     15 C4         195.3500   -31.8960    81.1170 ca         1 SV5      -0.094500
     16 C5         194.7290   -31.1690    80.1090 ca         1 SV5      -0.109000
     17 C          195.4780   -30.6620    79.0560 ca         1 SV5      -0.101000
     18 H1         197.4390   -30.4930    78.2000 ha         1 SV5       0.116000
     19 H2         198.5360   -31.7840    79.9790 ha         1 SV5       0.116500
     20 H3         199.9670   -33.8460    81.7870 h4         1 SV5       0.146000
     21 H4         201.9040   -32.2750    82.8220 ha         1 SV5       0.149000
     22 H5         196.7430   -30.4910    83.6570 ha         1 SV5       0.201000
     23 H7         197.6330   -28.5220    84.8940 h4         1 SV5       0.196000
     24 H8         196.7000   -33.0350    83.0250 h1         1 SV5       0.065200
     25 H9         197.5630   -33.9620    81.8190 h1         1 SV5       0.065200
     26 H10        194.7620   -32.2820    81.9420 ha         1 SV5       0.116500
     27 H11        193.6620   -30.9930    80.1520 ha         1 SV5       0.116000
     28 H12        194.9980   -30.0930    78.2710 ha         1 SV5       0.115000
     29 H6         199.8980   -28.2460    85.1620 hn         1 SV5       0.321500
@<TRIPOS>BOND
     1     1     2 ar  
     2     1    17 ar  
     3     1    18 1   
     4     2     3 ar  
     5     2    19 1   
     6     3    14 1   
     7     3    15 ar  
     8     4     5 2   
     9     4    13 1   
    10     4    20 1   
    11     5     6 1   
    12     5    21 1   
    13     6     7 2   
    14     6    10 1   
    15     7     8 1   
    16     7    13 1   
    17     8     9 2   
    18     8    22 1   
    19     9    12 1   
    20     9    23 1   
    21    10    11 2   
    22    10    12 1   
    23    12    29 1   
    24    13    14 1   
    25    14    24 1   
    26    14    25 1   
    27    15    16 ar  
    28    15    26 1   
    29    16    17 ar  
    30    16    27 1   
    31    17    28 1   
@<TRIPOS>SUBSTRUCTURE
     1 SV5         1 TEMP              0 ****  ****    0 ROOT
