@<TRIPOS>MOLECULE
SV6
  104   108     1     0     0
SMALL
abcg2


@<TRIPOS>ATOM
      1 CBN          7.4630    -0.7050     0.0810 ca         1 SV6       0.235500
      2 CBO          8.2020    -2.6670    -0.7720 ca         1 SV6       0.286900
      3 CBP          9.5130    -2.2720    -0.5280 ca         1 SV6       0.302900
      4 CBB          6.3230     0.2020     0.4440 c          1 SV6       0.516600
      5 CBQ          8.7730    -0.3130     0.3220 ca         1 SV6       0.342900
      6 OBW          6.5320     1.2850     0.9720 o          1 SV6      -0.607100
      7 NAF          7.1850    -1.8810    -0.4660 nb         1 SV6      -0.634000
      8 NAG          9.7970    -1.0990     0.0160 nb         1 SV6      -0.636000
      9 NAD          5.1180    -0.2880     0.1380 ns         1 SV6      -0.468900
     10 CAY          3.8800     0.3780     0.4340 c3         1 SV6       0.031700
     11 CAX          2.9160    -0.6160     1.0790 c          1 SV6       0.588100
     12 OBU          3.0790    -1.8220     1.0010 o          1 SV6      -0.601100
     13 CBH          3.2100     0.9930    -0.8160 c6         1 SV6      -0.074700
     14 CBI          2.7740    -0.0540    -1.8420 c6         1 SV6      -0.072400
     15 CBJ          2.0670     0.5990    -3.0260 c6         1 SV6      -0.074400
     16 CBK          2.9410     1.6640    -3.6790 c6         1 SV6      -0.075400
     17 CBL          3.3950     2.7000    -2.6560 c6         1 SV6      -0.074400
     18 CBM          4.1030     2.0450    -1.4740 c6         1 SV6      -0.072400
     19 NAC          1.8580    -0.0330     1.6710 ns         1 SV6      -0.487900
     20 CAW          0.6100    -0.7200     1.9240 c3         1 SV6       0.043700
     21 CAZ          0.1480    -0.5990     3.4000 c3         1 SV6      -0.039000
     22 CBC         -0.1090     0.8490     3.8180 c3         1 SV6      -0.089433
     23 CBD         -1.1330    -1.4130     3.5910 c3         1 SV6      -0.089433
     24 CBA          1.2450    -1.1940     4.2860 c3         1 SV6      -0.089433
     25 CAV         -0.3940    -0.1480     0.9190 c          1 SV6       0.590100
     26 OBT         -0.4720     1.0660     0.7610 o          1 SV6      -0.627100
     27 C           -3.2110     0.2820    -0.0090 c          1 SV6       0.604100
     28 N           -1.1390    -0.9900     0.1930 n          1 SV6      -0.386800
     29 O           -3.6270    -0.1230     1.0640 o          1 SV6      -0.612100
     30 CA          -2.0900    -0.4400    -0.7520 c5         1 SV6       0.033700
     31 CB          -2.6170    -1.6680    -1.4930 c5         1 SV6      -0.078700
     32 CG          -2.4220    -2.8380    -0.5210 c5         1 SV6      -0.080700
     33 CBE         -1.7900    -2.0840    -2.7100 c5         1 SV6      -0.077400
     34 CBF         -2.0700    -3.5820    -2.8380 c5         1 SV6      -0.078400
     35 CD1         -1.1520    -2.4480     0.2380 c5         1 SV6       0.110000
     36 CD2         -2.2700    -4.0940    -1.3930 c5         1 SV6      -0.071400
     37 NAA         -6.9780     0.0600     0.0300 ns         1 SV6      -0.459900
     38 NAE         -3.7180     1.3350    -0.6690 ns         1 SV6      -0.495900
     39 CAH         -4.8000     2.1660    -0.1900 c3         1 SV6       0.093700
     40 CAI         -6.0320     1.9950    -1.0950 c3         1 SV6       0.076300
     41 CAJ         -4.3650     3.6250    -0.0820 c3         1 SV6      -0.086400
     42 CAK         -3.2240     3.8330     0.9080 c3         1 SV6      -0.081400
     43 CAL         -2.8480     5.3000     1.0560 c3         1 SV6      -0.087100
     44 CAM         -6.4710     0.5300    -1.1130 c          1 SV6       0.571100
     45 CAN         -7.3770    -1.2960     0.2220 cx         1 SV6       0.038700
     46 CAO         -6.3530    -2.3770     0.1190 cx         1 SV6      -0.129900
     47 CAP         -6.8990    -1.9900     1.4570 cx         1 SV6      -0.129900
     48 OBR         -5.7610     2.4100    -2.4010 oh         1 SV6      -0.653000
     49 OBS         -6.3330    -0.1350    -2.1310 o          1 SV6      -0.613100
     50 HBQ          8.9980     0.6480     0.7660 h4         1 SV6       0.055100
     51 HBO          7.9810    -3.6280    -1.2190 h4         1 SV6       0.035100
     52 HBP         10.3400    -2.9240    -0.7820 h4         1 SV6       0.033100
     53 HNAD         5.0850    -1.2200    -0.2510 hn         1 SV6       0.357500
     54 HAY          4.0890     1.1840     1.1410 h1         1 SV6       0.094700
     55 HBH          2.3070     1.5100    -0.4700 hc         1 SV6       0.059700
     56 HBI          3.6530    -0.5980    -2.2070 hc         1 SV6       0.046950
     57 HBIA         2.1100    -0.7960    -1.3900 hc         1 SV6       0.046950
     58 HBJ          1.7860    -0.1640    -3.7550 hc         1 SV6       0.039700
     59 HBJA         1.1340     1.0580    -2.6760 hc         1 SV6       0.039700
     60 HBK          3.8200     1.1850    -4.1240 hc         1 SV6       0.039200
     61 HBKA         2.4020     2.1490    -4.4960 hc         1 SV6       0.039200
     62 HBL          4.0560     3.4330    -3.1260 hc         1 SV6       0.039700
     63 HBLA         2.5230     3.2540    -2.2920 hc         1 SV6       0.039700
     64 HBM          4.3880     2.8030    -0.7400 hc         1 SV6       0.046950
     65 HBMA         5.0280     1.5730    -1.8210 hc         1 SV6       0.046950
     66 HNAC         1.8030     0.9750     1.6360 hn         1 SV6       0.328500
     67 HAW          0.7920    -1.7780     1.7290 h1         1 SV6       0.088700
     68 HBC         -0.9460     1.2910     3.2790 hc         1 SV6       0.040811
     69 HBCA        -0.3490     0.8800     4.8820 hc         1 SV6       0.040811
     70 HBCB         0.7660     1.4840     3.6680 hc         1 SV6       0.040811
     71 HBD         -0.9650    -2.4740     3.3950 hc         1 SV6       0.040811
     72 HBDA        -1.4780    -1.3260     4.6230 hc         1 SV6       0.040811
     73 HBDB        -1.9460    -1.0730     2.9460 hc         1 SV6       0.040811
     74 HBA          2.1600    -0.6020     4.2540 hc         1 SV6       0.040811
     75 HBAA         0.9090    -1.2260     5.3240 hc         1 SV6       0.040811
     76 HBAB         1.4910    -2.2140     3.9830 hc         1 SV6       0.040811
     77 HA          -1.5920     0.2510    -1.4390 h1         1 SV6       0.078700
     78 HB          -3.6630    -1.5430    -1.7870 hc         1 SV6       0.085700
     79 HG          -3.2480    -2.9230     0.1870 hc         1 SV6       0.076700
     80 HBE         -2.0570    -1.5230    -3.6070 hc         1 SV6       0.048700
     81 HBEA        -0.7250    -1.9040    -2.5260 hc         1 SV6       0.048700
     82 HBF         -2.9840    -3.7340    -3.4160 hc         1 SV6       0.047200
     83 HBFA        -1.2730    -4.1100    -3.3620 hc         1 SV6       0.047200
     84 HD1         -0.2590    -2.8540    -0.2460 h1         1 SV6       0.054700
     85 HD1A        -1.1750    -2.8180     1.2610 h1         1 SV6       0.054700
     86 HD2         -1.4260    -4.7010    -1.0590 hc         1 SV6       0.047700
     87 HD2A        -3.1530    -4.7290    -1.3240 hc         1 SV6       0.047700
     88 HNAA        -7.1020     0.6990     0.8010 hn         1 SV6       0.323500
     89 HNAE        -3.2810     1.6080    -1.5360 hn         1 SV6       0.323500
     90 HAH         -5.0550     1.8170     0.8130 h1         1 SV6       0.077700
     91 HAI         -6.8460     2.6030    -0.6790 h1         1 SV6       0.073700
     92 HAJ         -4.0740     4.0030    -1.0670 hc         1 SV6       0.051200
     93 HAJA        -5.2310     4.2160     0.2330 hc         1 SV6       0.051200
     94 HAK         -3.5130     3.4270     1.8830 hc         1 SV6       0.050700
     95 HAKA        -2.3500     3.2600     0.5900 hc         1 SV6       0.050700
     96 HAL         -3.6920     5.8940     1.4140 hc         1 SV6       0.031367
     97 HALA        -2.0290     5.4320     1.7640 hc         1 SV6       0.031367
     98 HALB        -2.5300     5.7240     0.1020 hc         1 SV6       0.031367
     99 HAN         -8.3800    -1.5310    -0.1210 h1         1 SV6       0.086700
    100 HAO         -6.6590    -3.3170    -0.3210 hc         1 SV6       0.081450
    101 HAOA        -5.3390    -2.0780    -0.1070 hc         1 SV6       0.081450
    102 HAP         -6.2450    -1.4330     2.1160 hc         1 SV6       0.081450
    103 HAPA        -7.5870    -2.6570     1.9580 hc         1 SV6       0.081450
    104 HOBR        -5.7090     1.6060    -2.9400 ho         1 SV6       0.475000
@<TRIPOS>BOND
     1     1     4 1   
     2     1     5 ar  
     3     1     7 ar  
     4     2     3 ar  
     5     2     7 ar  
     6     2    51 1   
     7     3     8 ar  
     8     3    52 1   
     9     4     6 2   
    10     4     9 1   
    11     5     8 ar  
    12     5    50 1   
    13     9    10 1   
    14     9    53 1   
    15    10    11 1   
    16    10    13 1   
    17    10    54 1   
    18    11    12 2   
    19    11    19 1   
    20    13    14 1   
    21    13    18 1   
    22    13    55 1   
    23    14    15 1   
    24    14    56 1   
    25    14    57 1   
    26    15    16 1   
    27    15    58 1   
    28    15    59 1   
    29    16    17 1   
    30    16    60 1   
    31    16    61 1   
    32    17    18 1   
    33    17    62 1   
    34    17    63 1   
    35    18    64 1   
    36    18    65 1   
    37    19    20 1   
    38    19    66 1   
    39    20    21 1   
    40    20    25 1   
    41    20    67 1   
    42    21    22 1   
    43    21    23 1   
    44    21    24 1   
    45    22    68 1   
    46    22    69 1   
    47    22    70 1   
    48    23    71 1   
    49    23    72 1   
    50    23    73 1   
    51    24    74 1   
    52    24    75 1   
    53    24    76 1   
    54    25    26 2   
    55    25    28 1   
    56    27    29 2   
    57    27    30 1   
    58    27    38 1   
    59    28    30 1   
    60    28    35 1   
    61    30    31 1   
    62    30    77 1   
    63    31    32 1   
    64    31    33 1   
    65    31    78 1   
    66    32    35 1   
    67    32    36 1   
    68    32    79 1   
    69    33    34 1   
    70    33    80 1   
    71    33    81 1   
    72    34    36 1   
    73    34    82 1   
    74    34    83 1   
    75    35    84 1   
    76    35    85 1   
    77    36    86 1   
    78    36    87 1   
    79    37    44 1   
    80    37    45 1   
    81    37    88 1   
    82    38    39 1   
    83    38    89 1   
    84    39    40 1   
    85    39    41 1   
    86    39    90 1   
    87    40    44 1   
    88    40    48 1   
    89    40    91 1   
    90    41    42 1   
    91    41    92 1   
    92    41    93 1   
    93    42    43 1   
    94    42    94 1   
    95    42    95 1   
    96    43    96 1   
    97    43    97 1   
    98    43    98 1   
    99    44    49 2   
   100    45    46 1   
   101    45    47 1   
   102    45    99 1   
   103    46    47 1   
   104    46   100 1   
   105    46   101 1   
   106    47   102 1   
   107    47   103 1   
   108    48   104 1   
@<TRIPOS>SUBSTRUCTURE
     1 SV6         1 TEMP              0 ****  ****    0 ROOT
