@<TRIPOS>MOLECULE
SV6
  104   108     1     0     0
SMALL
No Charge or Current Charge


@<TRIPOS>ATOM
      1 CBN          7.9790    -0.8690     0.6930 ca         1 SV6       0.235500
      2 CBO          8.9440    -2.7970    -0.1600 ca         1 SV6       0.286900
      3 CBP         10.1970    -2.4110     0.3840 ca         1 SV6       0.302900
      4 CBB          6.7860     0.0490     0.9080 c          1 SV6       0.516600
      5 CBQ          9.2390    -0.4920     1.2330 ca         1 SV6       0.342900
      6 OBW          6.8510     1.1020     1.5330 o          1 SV6      -0.607100
      7 NAF          7.8220    -2.0380    -0.0160 nb         1 SV6      -0.634000
      8 NAG         10.3610    -1.2550     1.0870 nb         1 SV6      -0.636000
      9 NAD          5.6000    -0.3890     0.3510 ns         1 SV6      -0.468900
     10 CAY          4.2990     0.3210     0.4020 c3         1 SV6       0.031700
     11 CAX          3.1520    -0.6950     0.6820 c          1 SV6       0.588100
     12 OBU          3.3160    -1.9090     0.6800 o          1 SV6      -0.601100
     13 CBH          4.0460     1.2000    -0.8750 c6         1 SV6      -0.074700
     14 CBI          3.9540     0.3530    -2.1800 c6         1 SV6      -0.072400
     15 CBJ          3.6400     1.2420    -3.4090 c6         1 SV6      -0.074400
     16 CBK          4.6790     2.3790    -3.5630 c6         1 SV6      -0.075400
     17 CBL          4.7770     3.2250    -2.2700 c6         1 SV6      -0.074400
     18 CBM          5.0980     2.3350    -1.0440 c6         1 SV6      -0.072400
     19 NAC          1.9170    -0.1290     0.9220 ns         1 SV6      -0.487900
     20 CAW          0.6610    -0.8770     1.1750 c3         1 SV6       0.043700
     21 CAZ          0.3110    -0.9320     2.7150 c3         1 SV6      -0.039000
     22 CBC          0.0010     0.4900     3.2610 c3         1 SV6      -0.089433
     23 CBD         -0.9190    -1.8400     2.9890 c3         1 SV6      -0.089433
     24 CBA          1.5080    -1.5170     3.5180 c3         1 SV6      -0.089433
     25 CAV         -0.4670    -0.2470     0.2860 c          1 SV6       0.590100
     26 OBT         -0.4340     0.9420    -0.0220 o          1 SV6      -0.627100
     27 C           -3.6380     0.4280     0.1060 c          1 SV6       0.604100
     28 N           -1.5600    -1.0430    -0.1220 n          1 SV6      -0.386800
     29 O           -3.6640     0.4330     1.3310 o          1 SV6      -0.612100
     30 CA          -2.7260    -0.4280    -0.8250 c5         1 SV6       0.033700
     31 CB          -3.5400    -1.6710    -1.3250 c5         1 SV6      -0.078700
     32 CG          -2.9380    -2.8820    -0.5730 c5         1 SV6      -0.080700
     33 CBE         -3.1580    -1.9560    -2.8040 c5         1 SV6      -0.077400
     34 CBF         -3.6150    -3.4330    -2.8960 c5         1 SV6      -0.078400
     35 CD1         -1.4430    -2.4920    -0.3850 c5         1 SV6       0.110000
     36 CD2         -3.0260    -4.0700    -1.5960 c5         1 SV6      -0.071400
     37 NAA         -7.2610    -0.1960     0.7720 ns         1 SV6      -0.459900
     38 NAE         -4.4530     1.2280    -0.6710 ns         1 SV6      -0.495900
     39 CAH         -5.4920     2.1250    -0.1510 c3         1 SV6       0.093700
     40 CAI         -6.8870     1.7600    -0.7440 c3         1 SV6       0.076300
     41 CAJ         -5.0990     3.6120    -0.3460 c3         1 SV6      -0.086400
     42 CAK         -3.7900     4.0160     0.3760 c3         1 SV6      -0.081400
     43 CAL         -3.4520     5.5110     0.2170 c3         1 SV6      -0.087100
     44 CAM         -7.2290     0.2510    -0.5340 c          1 SV6       0.571100
     45 CAN         -7.4870    -1.5640     1.1500 cx         1 SV6       0.038700
     46 CAO         -6.2810    -2.3900     1.5210 cx         1 SV6      -0.129900
     47 CAP         -7.2500    -1.9470     2.5900 cx         1 SV6      -0.129900
     48 OBR         -6.9440     2.1030    -2.1550 oh         1 SV6      -0.653000
     49 OBS         -7.4590    -0.4930    -1.4820 o          1 SV6      -0.613100
     50 HBQ          9.3570     0.4350     1.7930 h4         1 SV6       0.055100
     51 HBO          8.8410    -3.7270    -0.7180 h4         1 SV6       0.035100
     52 HBP         11.0780    -3.0370     0.2530 h4         1 SV6       0.033100
     53 HNAD         5.6420    -1.2960    -0.1070 hn         1 SV6       0.357500
     54 HAY          4.3080     0.9950     1.2690 h1         1 SV6       0.094700
     55 HBH          3.0720     1.6860    -0.7220 hc         1 SV6       0.059700
     56 HBI          4.8990    -0.1820    -2.3500 hc         1 SV6       0.046950
     57 HBIA         3.1750    -0.4150    -2.0830 hc         1 SV6       0.046950
     58 HBJ          3.6240     0.6270    -4.3190 hc         1 SV6       0.039700
     59 HBJA         2.6330     1.6720    -3.3060 hc         1 SV6       0.039700
     60 HBK          5.6630     1.9510    -3.8010 hc         1 SV6       0.039200
     61 HBKA         4.4050     3.0230    -4.4100 hc         1 SV6       0.039200
     62 HBL          5.5530     3.9940    -2.3860 hc         1 SV6       0.039700
     63 HBLA         3.8310     3.7590    -2.1040 hc         1 SV6       0.039700
     64 HBM          5.1310     2.9560    -0.1380 hc         1 SV6       0.046950
     65 HBMA         6.1030     1.9080    -1.1670 hc         1 SV6       0.046950
     66 HNAC         1.8560     0.8820     0.8650 hn         1 SV6       0.328500
     67 HAW          0.8110    -1.9040     0.8220 h1         1 SV6       0.088700
     68 HBC         -0.8810     0.9220     2.7730 hc         1 SV6       0.040811
     69 HBCA        -0.2020     0.4580     4.3390 hc         1 SV6       0.040811
     70 HBCB         0.8450     1.1720     3.1030 hc         1 SV6       0.040811
     71 HBD         -0.7370    -2.8660     2.6480 hc         1 SV6       0.040811
     72 HBDA        -1.1370    -1.8870     4.0630 hc         1 SV6       0.040811
     73 HBDB        -1.8220    -1.4630     2.4950 hc         1 SV6       0.040811
     74 HBA          2.3870    -0.8640     3.4680 hc         1 SV6       0.040811
     75 HBAA         1.2500    -1.6330     4.5790 hc         1 SV6       0.040811
     76 HBAB         1.7920    -2.5040     3.1330 hc         1 SV6       0.040811
     77 HA          -2.3960     0.2090    -1.6570 h1         1 SV6       0.078700
     78 HB          -4.6270    -1.5820    -1.1900 hc         1 SV6       0.085700
     79 HG          -3.4350    -3.0810     0.3830 hc         1 SV6       0.076700
     80 HBE         -3.6970    -1.3100    -3.5070 hc         1 SV6       0.048700
     81 HBEA        -2.0880    -1.8470    -3.0140 hc         1 SV6       0.048700
     82 HBF         -4.7100    -3.5070    -2.9090 hc         1 SV6       0.047200
     83 HBFA        -3.2500    -3.9280    -3.8030 hc         1 SV6       0.047200
     84 HD1         -0.8370    -2.6660    -1.2840 h1         1 SV6       0.054700
     85 HD1A        -0.9920    -3.0520     0.4420 h1         1 SV6       0.054700
     86 HD2         -2.0510    -4.5350    -1.7850 hc         1 SV6       0.047700
     87 HD2A        -3.6780    -4.8690    -1.2250 hc         1 SV6       0.047700
     88 HNAA        -7.0740     0.4890     1.4950 hn         1 SV6       0.323500
     89 HNAE        -4.3430     1.1600    -1.6760 hn         1 SV6       0.323500
     90 HAH         -5.5640     1.9680     0.9340 h1         1 SV6       0.077700
     91 HAI         -7.6480     2.3290    -0.1930 h1         1 SV6       0.073700
     92 HAJ         -4.9940     3.8270    -1.4170 hc         1 SV6       0.051200
     93 HAJA        -5.9160     4.2430     0.0240 hc         1 SV6       0.051200
     94 HAK         -3.8760     3.7810     1.4450 hc         1 SV6       0.050700
     95 HAKA        -2.9530     3.4240    -0.0140 hc         1 SV6       0.050700
     96 HAL         -4.2500     6.1360     0.6350 hc         1 SV6       0.031367
     97 HALA        -2.5190     5.7490     0.7430 hc         1 SV6       0.031367
     98 HALB        -3.3250     5.7700    -0.8410 hc         1 SV6       0.031367
     99 HAN         -8.3050    -2.0540     0.6170 h1         1 SV6       0.086700
    100 HAO         -6.2810    -3.4390     1.2350 hc         1 SV6       0.081450
    101 HAOA        -5.3060    -1.9110     1.4960 hc         1 SV6       0.081450
    102 HAP         -6.9220    -1.1740     3.2810 hc         1 SV6       0.081450
    103 HAPA        -7.9030    -2.6990     3.0260 hc         1 SV6       0.081450
    104 HOBR        -7.2280     1.2780    -2.6190 ho         1 SV6       0.475000
@<TRIPOS>BOND
     1     1     4 1   
     2     1     5 ar  
     3     1     7 ar  
     4     2     3 ar  
     5     2     7 ar  
     6     2    51 1   
     7     3     8 ar  
     8     3    52 1   
     9     4     6 2   
    10     4     9 1   
    11     5     8 ar  
    12     5    50 1   
    13     9    10 1   
    14     9    53 1   
    15    10    11 1   
    16    10    13 1   
    17    10    54 1   
    18    11    12 2   
    19    11    19 1   
    20    13    14 1   
    21    13    18 1   
    22    13    55 1   
    23    14    15 1   
    24    14    56 1   
    25    14    57 1   
    26    15    16 1   
    27    15    58 1   
    28    15    59 1   
    29    16    17 1   
    30    16    60 1   
    31    16    61 1   
    32    17    18 1   
    33    17    62 1   
    34    17    63 1   
    35    18    64 1   
    36    18    65 1   
    37    19    20 1   
    38    19    66 1   
    39    20    21 1   
    40    20    25 1   
    41    20    67 1   
    42    21    22 1   
    43    21    23 1   
    44    21    24 1   
    45    22    68 1   
    46    22    69 1   
    47    22    70 1   
    48    23    71 1   
    49    23    72 1   
    50    23    73 1   
    51    24    74 1   
    52    24    75 1   
    53    24    76 1   
    54    25    26 2   
    55    25    28 1   
    56    27    29 2   
    57    27    30 1   
    58    27    38 1   
    59    28    30 1   
    60    28    35 1   
    61    30    31 1   
    62    30    77 1   
    63    31    32 1   
    64    31    33 1   
    65    31    78 1   
    66    32    35 1   
    67    32    36 1   
    68    32    79 1   
    69    33    34 1   
    70    33    80 1   
    71    33    81 1   
    72    34    36 1   
    73    34    82 1   
    74    34    83 1   
    75    35    84 1   
    76    35    85 1   
    77    36    86 1   
    78    36    87 1   
    79    37    44 1   
    80    37    45 1   
    81    37    88 1   
    82    38    39 1   
    83    38    89 1   
    84    39    40 1   
    85    39    41 1   
    86    39    90 1   
    87    40    44 1   
    88    40    48 1   
    89    40    91 1   
    90    41    42 1   
    91    41    92 1   
    92    41    93 1   
    93    42    43 1   
    94    42    94 1   
    95    42    95 1   
    96    43    96 1   
    97    43    97 1   
    98    43    98 1   
    99    44    49 2   
   100    45    46 1   
   101    45    47 1   
   102    45    99 1   
   103    46    47 1   
   104    46   100 1   
   105    46   101 1   
   106    47   102 1   
   107    47   103 1   
   108    48   104 1   
@<TRIPOS>SUBSTRUCTURE
     1 SV6         1 TEMP              0 ****  ****    0 ROOT
