@<TRIPOS>MOLECULE
SV7
   15    15     1     0     0
SMALL
bcc


@<TRIPOS>ATOM
      1 OAA          1.8960     1.3680     0.4010 o          1 SV7      -0.927833
      2 PAB          1.4640    -0.0460     0.0030 p5         1 SV7       1.167000
      3 OAC          1.7810    -0.4040    -1.4530 o          1 SV7      -0.927833
      4 OAD          1.8570    -1.1330     1.0060 o          1 SV7      -0.927833
      5 CAE         -0.3930    -0.0090     0.0460 ca         1 SV7      -0.107500
      6 CAF         -1.1340    -1.1850     0.1810 ca         1 SV7      -0.091000
      7 CAG         -2.5220    -1.1820     0.1350 ca         1 SV7      -0.188000
      8 CAH         -3.2110     0.0120    -0.0460 ca         1 SV7      -0.194000
      9 CAI         -2.4950     1.1960    -0.1730 ca         1 SV7      -0.188000
     10 CAJ         -1.1050     1.1790    -0.1270 ca         1 SV7      -0.091000
     11 HAF         -0.6110    -2.1210     0.3410 ha         1 SV7       0.134000
     12 HAJ         -0.5580     2.1100    -0.2160 ha         1 SV7       0.134000
     13 HAG         -3.0710    -2.1100     0.2450 ha         1 SV7       0.071000
     14 HAH         -4.2930     0.0200    -0.0810 ha         1 SV7       0.066000
     15 HAI         -3.0220     2.1340    -0.3080 ha         1 SV7       0.071000
@<TRIPOS>BOND
     1     1     2 1   
     2     2     3 1   
     3     2     4 1   
     4     2     5 1   
     5     5     6 ar  
     6     5    10 ar  
     7     6     7 ar  
     8     6    11 1   
     9     7     8 ar  
    10     7    13 1   
    11     8     9 ar  
    12     8    14 1   
    13     9    10 ar  
    14     9    15 1   
    15    10    12 1   
@<TRIPOS>SUBSTRUCTURE
     1 SV7         1 TEMP              0 ****  ****    0 ROOT
