@<TRIPOS>MOLECULE
SV7
   15    15     1     0     0
SMALL
No Charge or Current Charge


@<TRIPOS>ATOM
      1 OAA          1.9550     1.2680     0.5170 o          1 SV7      -0.927833
      2 PAB          1.4330    -0.0410     0.0250 p5         1 SV7       1.167000
      3 OAC          1.9010    -0.2600    -1.3740 o          1 SV7      -0.927833
      4 OAD          1.9210    -1.1580     0.8850 o          1 SV7      -0.927833
      5 CAE         -0.4120    -0.0180     0.0120 ca         1 SV7      -0.107500
      6 CAF         -1.1440    -1.2120     0.1840 ca         1 SV7      -0.073000
      7 CAG         -2.5500    -1.1930     0.1690 ca         1 SV7      -0.170000
      8 CAH         -3.2370     0.0160    -0.0200 ca         1 SV7      -0.176000
      9 CAI         -2.5170     1.2090    -0.1960 ca         1 SV7      -0.170000
     10 CAJ         -1.1110     1.1930    -0.1820 ca         1 SV7      -0.073000
     11 HAF         -0.6180    -2.1530     0.3290 ha         1 SV7       0.116000
     12 HAJ         -0.5600     2.1210    -0.3210 ha         1 SV7       0.116000
     13 HAG         -3.1060    -2.1180     0.3040 ha         1 SV7       0.053000
     14 HAH         -4.3240     0.0290    -0.0320 ha         1 SV7       0.048000
     15 HAI         -3.0480     2.1460    -0.3450 ha         1 SV7       0.053000
@<TRIPOS>BOND
     1     1     2 1   
     2     2     3 1   
     3     2     4 1   
     4     2     5 1   
     5     5     6 ar  
     6     5    10 ar  
     7     6     7 ar  
     8     6    11 1   
     9     7     8 ar  
    10     7    13 1   
    11     8     9 ar  
    12     8    14 1   
    13     9    10 ar  
    14     9    15 1   
    15    10    12 1   
@<TRIPOS>SUBSTRUCTURE
     1 SV7         1 TEMP              0 ****  ****    0 ROOT
