@<TRIPOS>MOLECULE
SV8
   41    45     1     0     0
SMALL
abcg2


@<TRIPOS>ATOM
      1 C1         194.0400   -35.8760    81.5530 ca         1 SV8      -0.110500
      2 C2         193.9350   -35.2140    82.7750 ca         1 SV8      -0.106500
      3 C3         193.8260   -33.8250    82.8280 ca         1 SV8      -0.076300
      4 C7         194.8510   -32.1380    84.3830 cc         1 SV8      -0.130400
      5 C8         194.7640   -30.7790    84.5330 cd         1 SV8      -0.145100
      6 C9         196.9510   -31.2370    84.6560 ca         1 SV8       0.370500
      7 C10        196.2510   -32.4590    84.4550 ca         1 SV8      -0.124800
      8 C11        197.0090   -33.6230    84.3880 ca         1 SV8      -0.023000
      9 C12        198.3980   -33.5240    84.5090 ca         1 SV8      -0.077000
     10 C13        198.9610   -32.2450    84.7010 ca         1 SV8       0.363900
     11 C14        199.2620   -34.7060    84.4450 cc         1 SV8      -0.067000
     12 C15        198.9060   -35.9660    83.9550 cd         1 SV8      -0.163000
     13 C16        201.0010   -36.1390    84.6380 cd         1 SV8      -0.255600
     14 C19        202.3650   -36.3840    85.0970 c          1 SV8       0.608600
     15 O          203.0480   -37.4080    85.0500 o          1 SV8      -0.556000
     16 N2         199.9640   -36.8250    84.0800 na         1 SV8      -0.059000
     17 N3         202.7510   -35.1790    85.6220 ns         1 SV8      -0.524900
     18 C18        201.7490   -34.1130    85.5180 c5         1 SV8       0.178300
     19 C17        200.6120   -34.8430    84.8710 cc         1 SV8      -0.146300
     20 N1         198.2660   -31.1080    84.7800 nb         1 SV8      -0.682000
     21 N          196.0220   -30.2310    84.7010 na         1 SV8      -0.337400
     22 C6         193.7260   -33.1010    84.1560 c3         1 SV8       0.044100
     23 C4         193.8260   -33.1090    81.6290 ca         1 SV8      -0.106500
     24 C5         193.9270   -33.7640    80.4080 ca         1 SV8      -0.110500
     25 C          194.0360   -35.1530    80.3660 ca         1 SV8      -0.112000
     26 H1         194.1270   -36.9550    81.5320 ha         1 SV8       0.111000
     27 H2         193.9430   -35.7810    83.6980 ha         1 SV8       0.110500
     28 H3         193.8910   -30.1470    84.5310 h4         1 SV8       0.215000
     29 H4         196.5330   -34.5850    84.2540 ha         1 SV8       0.120000
     30 H5         200.0360   -32.1430    84.7850 h4         1 SV8       0.017100
     31 H6         197.9810   -36.2980    83.5150 h4         1 SV8       0.153000
     32 H7         199.9650   -37.7910    83.7940 hn         1 SV8       0.365000
     33 H8         202.1290   -33.2860    84.9110 h1         1 SV8       0.059700
     34 H9         196.2250   -29.2540    84.8350 hn         1 SV8       0.363000
     35 H10        192.7800   -32.5550    84.2040 hc         1 SV8       0.052200
     36 H11        193.7020   -33.8440    84.9570 hc         1 SV8       0.052200
     37 H12        193.7520   -32.0280    81.6570 ha         1 SV8       0.110500
     38 H13        193.9220   -33.1930    79.4880 ha         1 SV8       0.111000
     39 H14        194.1190   -35.6640    79.4150 ha         1 SV8       0.112000
     40 H15        203.6890   -35.0180    85.9510 hn         1 SV8       0.334500
     41 H16        201.4950   -33.7160    86.5040 h1         1 SV8       0.059700
@<TRIPOS>BOND
     1     1     2 ar  
     2     1    25 ar  
     3     1    26 1   
     4     2     3 ar  
     5     2    27 1   
     6     3    22 1   
     7     3    23 ar  
     8     4     5 2   
     9     4     7 1   
    10     4    22 1   
    11     5    21 1   
    12     5    28 1   
    13     6     7 ar  
    14     6    20 ar  
    15     6    21 1   
    16     7     8 ar  
    17     8     9 ar  
    18     8    29 1   
    19     9    10 ar  
    20     9    11 1   
    21    10    20 ar  
    22    10    30 1   
    23    11    12 2   
    24    11    19 1   
    25    12    16 1   
    26    12    31 1   
    27    13    14 1   
    28    13    16 1   
    29    13    19 2   
    30    14    15 2   
    31    14    17 1   
    32    16    32 1   
    33    17    18 1   
    34    17    40 1   
    35    18    19 1   
    36    18    33 1   
    37    18    41 1   
    38    21    34 1   
    39    22    35 1   
    40    22    36 1   
    41    23    24 ar  
    42    23    37 1   
    43    24    25 ar  
    44    24    38 1   
    45    25    39 1   
@<TRIPOS>SUBSTRUCTURE
     1 SV8         1 TEMP              0 ****  ****    0 ROOT
