@<TRIPOS>MOLECULE
SV8
   41    45     1     0     0
SMALL
No Charge or Current Charge


@<TRIPOS>ATOM
      1 C1         194.2960   -35.8700    81.4430 ca         1 SV8      -0.110500
      2 C2         194.1210   -35.2460    82.6910 ca         1 SV8      -0.106500
      3 C3         193.9580   -33.8480    82.7710 ca         1 SV8      -0.076300
      4 C7         194.8430   -32.1370    84.4040 cc         1 SV8      -0.130400
      5 C8         194.6840   -30.7650    84.5370 cd         1 SV8      -0.145100
      6 C9         196.8850   -31.1840    84.7930 ca         1 SV8       0.370500
      7 C10        196.2480   -32.3800    84.5680 ca         1 SV8      -0.124800
      8 C11        196.9520   -33.5890    84.5180 ca         1 SV8      -0.023000
      9 C12        198.3530   -33.5330    84.7100 ca         1 SV8      -0.077000
     10 C13        198.9230   -32.2510    84.9400 ca         1 SV8       0.363900
     11 C14        199.1830   -34.7520    84.6720 cc         1 SV8      -0.067000
     12 C15        198.6450   -36.0100    84.4300 cd         1 SV8      -0.163000
     13 C16        200.8800   -36.2310    84.7190 cd         1 SV8      -0.255600
     14 C19        202.3020   -36.4030    84.9000 c          1 SV8       0.608600
     15 O          202.9650   -37.4270    84.8610 o          1 SV8      -0.556000
     16 N2         199.7120   -36.9440    84.4600 na         1 SV8      -0.059000
     17 N3         202.7710   -35.1170    85.1340 ns         1 SV8      -0.524900
     18 C18        201.7190   -34.0400    85.1240 c5         1 SV8       0.178300
     19 C17        200.5660   -34.9600    84.8400 cc         1 SV8      -0.146300
     20 N1         198.2120   -31.0930    84.9820 nb         1 SV8      -0.682000
     21 N          195.9490   -30.1730    84.7830 na         1 SV8      -0.337400
     22 C6         193.7760   -33.1640    84.1210 c3         1 SV8       0.044100
     23 C4         193.9670   -33.0840    81.5870 ca         1 SV8      -0.106500
     24 C5         194.1410   -33.7080    80.3400 ca         1 SV8      -0.110500
     25 C          194.3060   -35.1010    80.2670 ca         1 SV8      -0.112000
     26 H1         194.4230   -36.9490    81.3880 ha         1 SV8       0.111000
     27 H2         194.1150   -35.8510    83.5940 ha         1 SV8       0.110500
     28 H3         193.7730   -30.1740    84.4740 h4         1 SV8       0.215000
     29 H4         196.4260   -34.5200    84.3380 ha         1 SV8       0.120000
     30 H5         199.9900   -32.1310    85.0960 h4         1 SV8       0.017100
     31 H6         197.6260   -36.3240    84.2410 h4         1 SV8       0.153000
     32 H7         199.6390   -37.9490    84.3180 hn         1 SV8       0.365000
     33 H8         201.8670   -33.3050    84.3210 h1         1 SV8       0.059700
     34 H9         196.1490   -29.1910    84.9230 hn         1 SV8       0.363000
     35 H10        192.7900   -32.6850    84.1540 hc         1 SV8       0.052200
     36 H11        193.7720   -33.9050    84.9300 hc         1 SV8       0.052200
     37 H12        193.8430   -32.0040    81.6350 ha         1 SV8       0.110500
     38 H13        194.1490   -33.1110    79.4300 ha         1 SV8       0.111000
     39 H14        194.4420   -35.5840    79.3020 ha         1 SV8       0.112000
     40 H15        203.7610   -34.9800    85.2940 hn         1 SV8       0.334500
     41 H16        201.6130   -33.5340    86.0930 h1         1 SV8       0.059700
@<TRIPOS>BOND
     1     1     2 ar  
     2     1    25 ar  
     3     1    26 1   
     4     2     3 ar  
     5     2    27 1   
     6     3    22 1   
     7     3    23 ar  
     8     4     5 2   
     9     4     7 1   
    10     4    22 1   
    11     5    21 1   
    12     5    28 1   
    13     6     7 ar  
    14     6    20 ar  
    15     6    21 1   
    16     7     8 ar  
    17     8     9 ar  
    18     8    29 1   
    19     9    10 ar  
    20     9    11 1   
    21    10    20 ar  
    22    10    30 1   
    23    11    12 2   
    24    11    19 1   
    25    12    16 1   
    26    12    31 1   
    27    13    14 1   
    28    13    16 1   
    29    13    19 2   
    30    14    15 2   
    31    14    17 1   
    32    16    32 1   
    33    17    18 1   
    34    17    40 1   
    35    18    19 1   
    36    18    33 1   
    37    18    41 1   
    38    21    34 1   
    39    22    35 1   
    40    22    36 1   
    41    23    24 ar  
    42    23    37 1   
    43    24    25 ar  
    44    24    38 1   
    45    25    39 1   
@<TRIPOS>SUBSTRUCTURE
     1 SV8         1 TEMP              0 ****  ****    0 ROOT
