@<TRIPOS>MOLECULE
SV9
  124   132     1     0     0
SMALL
abcg2


@<TRIPOS>ATOM
      1 C4          -4.0820    59.9410    84.1350 ca         1 SV9      -0.018000
      2 C14         -5.9350    52.3700    85.6270 ca         1 SV9      -0.098000
      3 C5          -4.2680    59.3380    82.8940 ca         1 SV9      -0.052000
      4 C6          -3.9200    60.0040    81.7310 ca         1 SV9      -0.063000
      5 C11         -3.8240    55.2130    84.2780 c3         1 SV9      -0.027100
      6 C7          -3.3260    61.2570    81.7720 ca         1 SV9      -0.089300
      7 C8          -2.9320    61.9540    80.5040 c3         1 SV9      -0.037800
      8 C10         -4.3530    55.5780    82.8820 c3         1 SV9      -0.150400
      9 C12         -4.2710    53.8340    84.6630 ca         1 SV9      -0.066300
     10 C13         -5.4840    53.6420    85.3150 ca         1 SV9      -0.106500
     11 N1          -4.7840    58.0160    82.9060 n          1 SV9       0.003200
     12 N2          -6.4400    58.1580    86.1270 ns         1 SV9      -0.515600
     13 C3          -3.4950    61.2010    84.1820 ca         1 SV9      -0.103000
     14 N3          -7.8640    57.0440    84.7010 ns         1 SV9      -0.476500
     15 C15         -5.1860    51.2410    85.2960 cp         1 SV9      -0.048000
     16 C16         -5.6770    49.8860    85.6170 cp         1 SV9      -0.020000
     17 C17         -4.7980    48.8740    86.0070 ca         1 SV9      -0.100000
     18 C18         -5.2730    47.6050    86.3010 ca         1 SV9      -0.116000
     19 C19         -6.6280    47.3230    86.2110 ca         1 SV9      -0.104000
     20 C2          -3.0960    61.8520    83.0210 ca         1 SV9      -0.055300
     21 C20         -7.5260    48.3180    85.8230 cp         1 SV9      -0.038000
     22 C21         -8.9730    48.0350    85.7200 cp         1 SV9      -0.031000
     23 C22         -9.4300    46.8210    85.2050 ca         1 SV9      -0.099500
     24 C23        -10.7900    46.5580    85.1080 ca         1 SV9      -0.112000
     25 C24        -11.7160    47.5070    85.5210 ca         1 SV9      -0.111000
     26 C25        -11.2730    48.7200    86.0310 ca         1 SV9      -0.112000
     27 C26         -9.9140    48.9810    86.1300 ca         1 SV9      -0.099500
     28 C27         -7.0360    49.5880    85.5310 ca         1 SV9      -0.089000
     29 C28         -3.9660    51.4350    84.6450 ca         1 SV9      -0.098000
     30 C29         -3.5190    52.7090    84.3330 ca         1 SV9      -0.106500
     31 C30         -5.8000    57.8430    83.8740 cc         1 SV9      -0.371600
     32 C31         -5.5800    58.4100    85.1020 cd         1 SV9       0.203600
     33 C32         -7.6120    57.4500    85.9800 c          1 SV9       0.627000
     34 C33         -7.0540    57.2250    83.5800 c          1 SV9       0.625600
     35 C35         -5.1260    60.7100    87.2720 c3         1 SV9       0.158300
     36 C36         -4.3560    61.7340    88.1180 c3         1 SV9       0.124300
     37 C37         -5.3210    62.6270    88.9130 c3         1 SV9       0.158300
     38 C38         -4.5870    63.6660    89.7460 c3         1 SV9       0.216600
     39 C39         -8.3080    68.5060    89.7370 c3         1 SV9       0.211600
     40 C40         -9.6030    69.2450    89.4210 c5         1 SV9       0.105300
     41 C41         -9.4630    71.3120    88.3590 c5         1 SV9       0.265300
     42 C42         -7.0710    72.1050    88.4120 cc         1 SV9       0.439700
     43 C43         -7.3040    74.1770    88.0770 ca         1 SV9      -0.092600
     44 C44         -7.2050    75.5660    87.8760 ca         1 SV9       0.440900
     45 C45         -9.4970    75.6070    87.6880 ca         1 SV9       0.159900
     46 C46         -8.5840    73.6440    88.0580 ca         1 SV9       0.121500
     47 C47         -9.3610    70.2120    87.2910 c5         1 SV9       0.134300
     48 C48        -10.0890    69.0700    87.9780 c5         1 SV9       0.146300
     49 N4          -4.5370    59.2560    85.2860 na         1 SV9      -0.061000
     50 N5          -8.4190    72.3030    88.2670 na         1 SV9      -0.281300
     51 N6          -6.3730    73.1960    88.3050 nd         1 SV9      -0.578100
     52 N7          -6.0410    76.2160    87.8680 nv         1 SV9      -1.078900
     53 N8          -8.3360    76.2540    87.6830 nb         1 SV9      -0.322000
     54 N9          -9.7170    74.3160    87.8660 nb         1 SV9      -0.204000
     55 O1          -2.9660    57.2070    81.8340 o          1 SV9      -0.592100
     56 O10         -6.1240    66.4080    89.4290 os         1 SV9      -0.723800
     57 O11         -8.0660    64.7780    88.9630 o          1 SV9      -0.838000
     58 O12         -7.4980    66.7710    87.3660 o          1 SV9      -0.838000
     59 O13         -8.5560    67.1170    89.6830 os         1 SV9      -0.580400
     60 O14         -9.3950    70.6510    89.5960 os         1 SV9      -0.461000
     61 O15         -9.9220    70.5550    86.0640 oh         1 SV9      -0.682000
     62 O16        -11.4720    69.3000    87.8580 oh         1 SV9      -0.723000
     63 O2          -8.3540    57.2410    86.9140 o          1 SV9      -0.552000
     64 O3          -7.4280    56.8340    82.4880 o          1 SV9      -0.552000
     65 O4          -5.9040    61.3010    86.2720 oh         1 SV9      -0.759000
     66 O5          -3.5310    60.9980    88.9950 oh         1 SV9      -0.679000
     67 O6          -6.1970    63.2240    87.9860 oh         1 SV9      -0.836000
     68 O7          -5.5050    64.2490    90.6510 os         1 SV9      -0.598400
     69 O8          -6.6260    66.0660    91.9450 o          1 SV9      -0.839000
     70 O9          -4.2030    66.4280    91.0280 o          1 SV9      -0.839000
     71 P1          -5.5800    65.8660    90.9000 p5         1 SV9       1.461800
     72 P2          -7.5890    66.1960    88.7430 p5         1 SV9       1.471800
     73 H1          -6.8740    52.2630    86.1550 ha         1 SV9       0.110500
     74 H2          -4.0980    59.5230    80.7780 ha         1 SV9       0.126000
     75 H3          -2.7330    55.2750    84.2780 hc         1 SV9       0.057200
     76 H4          -4.1840    55.9280    85.0170 hc         1 SV9       0.057200
     77 H5          -3.4220    62.9250    80.4120 hc         1 SV9       0.036700
     78 H6          -1.8560    62.1390    80.4630 hc         1 SV9       0.036700
     79 H7          -3.2000    61.3630    79.6290 hc         1 SV9       0.036700
     80 H8          -5.4280    55.4240    82.8340 hc         1 SV9       0.071200
     81 H9          -3.9060    54.9030    82.1500 hc         1 SV9       0.071200
     82 H10         -6.0870    54.5000    85.5880 ha         1 SV9       0.117000
     83 H11         -6.2980    58.5670    87.0410 hn         1 SV9       0.480000
     84 H12         -3.3420    61.7030    85.1270 ha         1 SV9       0.134000
     85 H13         -8.7420    56.5630    84.5530 hn         1 SV9       0.337500
     86 H14         -3.0280    63.9620    82.5930 hc         1 SV9       0.044367
     87 H15         -2.3190    63.5160    84.1440 hc         1 SV9       0.044367
     88 H16         -1.4540    63.1920    82.6430 hc         1 SV9       0.044367
     89 H17         -3.7400    49.0810    86.1100 ha         1 SV9       0.115000
     90 H18         -4.5830    46.8330    86.6180 ha         1 SV9       0.108000
     91 H19         -6.9900    46.3340    86.4590 ha         1 SV9       0.110000
     92 H20         -8.7200    46.0810    84.8580 ha         1 SV9       0.115500
     93 H21        -11.1250    45.6140    84.6990 ha         1 SV9       0.111000
     94 H22        -12.7760    47.3030    85.4450 ha         1 SV9       0.109000
     95 H23        -11.9860    49.4640    86.3600 ha         1 SV9       0.111000
     96 H24         -9.5820    49.9260    86.5430 ha         1 SV9       0.115500
     97 H25         -7.7280    50.3500    85.1950 ha         1 SV9       0.121000
     98 H26         -3.3660    50.5830    84.3520 ha         1 SV9       0.110500
     99 H27         -2.5720    52.8290    83.8190 ha         1 SV9       0.117000
    100 H28         -4.0400    58.8170    87.2500 h1         1 SV9       0.061700
    101 H29         -3.1460    60.1150    86.5310 h1         1 SV9       0.061700
    102 H30         -5.7620    60.1570    87.9870 h1         1 SV9       0.030700
    103 H31         -3.7580    62.3580    87.4370 h1         1 SV9       0.041700
    104 H32         -5.8720    61.9690    89.6050 h1         1 SV9       0.043700
    105 H33         -3.7870    63.1900    90.3200 h1         1 SV9       0.015700
    106 H34         -4.1230    64.4030    89.0820 h1         1 SV9       0.015700
    107 H35         -7.9620    68.7810    90.7400 h1         1 SV9       0.041700
    108 H36         -7.5220    68.8050    89.0360 h1         1 SV9       0.041700
    109 H37        -10.3750    68.9110    90.1220 h1         1 SV9       0.080700
    110 H38        -10.4060    71.8570    88.2450 h2         1 SV9       0.103700
    111 H39         -6.6600    71.1250    88.6030 h5         1 SV9       0.095800
    112 H40        -10.3750    76.2230    87.5280 h5         1 SV9       0.032100
    113 H41         -8.3090    69.9150    87.1810 h1         1 SV9       0.078700
    114 H42         -9.8020    68.0960    87.5660 h1         1 SV9       0.118700
    115 H43         -6.0180    77.2120    87.7280 hn         1 SV9       0.499500
    116 H44         -5.1730    75.7330    88.0150 hn         1 SV9       0.499500
    117 H46         -9.2960    71.1080    85.5850 ho         1 SV9       0.497000
    118 H47        -11.9390    68.5940    88.3190 ho         1 SV9       0.504000
    119 H48         -6.2670    62.1170    86.6690 ho         1 SV9       0.586000
    120 H49         -2.6870    61.4490    89.0860 ho         1 SV9       0.446000
    121 H50         -6.9310    63.7230    88.4390 ho         1 SV9       0.624000
    122 C9          -3.9620    56.9850    82.4900 c          1 SV9       0.573900
    123 C1          -2.4420    63.1990    83.1090 c3         1 SV9      -0.047800
    124 C34         -4.1490    59.6990    86.6170 c3         1 SV9       0.053600
@<TRIPOS>BOND
     1     1     3 ar  
     2     1    13 ar  
     3     1    49 1   
     4     2    10 ar  
     5     2    15 ar  
     6     2    73 1   
     7     3     4 ar  
     8     3    11 1   
     9     4     6 ar  
    10     4    74 1   
    11     5     8 1   
    12     5     9 1   
    13     5    75 1   
    14     5    76 1   
    15     6     7 1   
    16     6    20 ar  
    17     7    77 1   
    18     7    78 1   
    19     7    79 1   
    20     8    80 1   
    21     8    81 1   
    22     8   122 1   
    23     9    10 ar  
    24     9    30 ar  
    25    10    82 1   
    26    11    31 1   
    27    11   122 1   
    28    12    32 1   
    29    12    33 1   
    30    12    83 1   
    31    13    20 ar  
    32    13    84 1   
    33    14    33 1   
    34    14    34 1   
    35    14    85 1   
    36    15    16 1   
    37    15    29 ar  
    38    16    17 ar  
    39    16    28 ar  
    40    17    18 ar  
    41    17    89 1   
    42    18    19 ar  
    43    18    90 1   
    44    19    21 ar  
    45    19    91 1   
    46    20   123 1   
    47    21    22 1   
    48    21    28 ar  
    49    22    23 ar  
    50    22    27 ar  
    51    23    24 ar  
    52    23    92 1   
    53    24    25 ar  
    54    24    93 1   
    55    25    26 ar  
    56    25    94 1   
    57    26    27 ar  
    58    26    95 1   
    59    27    96 1   
    60    28    97 1   
    61    29    30 ar  
    62    29    98 1   
    63    30    99 1   
    64    31    32 2   
    65    31    34 1   
    66    32    49 1   
    67    33    63 2   
    68    34    64 2   
    69    35    36 1   
    70    35    65 1   
    71    35   102 1   
    72    35   124 1   
    73    36    37 1   
    74    36    66 1   
    75    36   103 1   
    76    37    38 1   
    77    37    67 1   
    78    37   104 1   
    79    38    68 1   
    80    38   105 1   
    81    38   106 1   
    82    39    40 1   
    83    39    59 1   
    84    39   107 1   
    85    39   108 1   
    86    40    48 1   
    87    40    60 1   
    88    40   109 1   
    89    41    47 1   
    90    41    50 1   
    91    41    60 1   
    92    41   110 1   
    93    42    50 1   
    94    42    51 2   
    95    42   111 1   
    96    43    44 ar  
    97    43    46 ar  
    98    43    51 1   
    99    44    52 1   
   100    44    53 ar  
   101    45    53 ar  
   102    45    54 ar  
   103    45   112 1   
   104    46    50 1   
   105    46    54 ar  
   106    47    48 1   
   107    47    61 1   
   108    47   113 1   
   109    48    62 1   
   110    48   114 1   
   111    49   124 1   
   112    52   115 1   
   113    52   116 1   
   114    55   122 2   
   115    56    71 1   
   116    56    72 1   
   117    57    72 1   
   118    58    72 1   
   119    59    72 1   
   120    61   117 1   
   121    62   118 1   
   122    65   119 1   
   123    66   120 1   
   124    67   121 1   
   125    68    71 1   
   126    69    71 1   
   127    70    71 1   
   128    86   123 1   
   129    87   123 1   
   130    88   123 1   
   131   100   124 1   
   132   101   124 1   
@<TRIPOS>SUBSTRUCTURE
     1 SV9         1 TEMP              0 ****  ****    0 ROOT
