@<TRIPOS>MOLECULE
SV9
  124   132     1     0     0
SMALL
No Charge or Current Charge


@<TRIPOS>ATOM
      1 C4          -3.2220    59.8710    84.2560 ca         1 SV9      -0.018000
      2 C14         -5.9030    52.9990    85.2000 ca         1 SV9      -0.098000
      3 C5          -3.0530    59.3210    82.9680 ca         1 SV9      -0.052000
      4 C6          -1.9780    59.7500    82.1580 ca         1 SV9      -0.063000
      5 C11         -3.6850    55.3400    83.1270 c3         1 SV9      -0.027100
      6 C7          -1.0190    60.6560    82.6460 ca         1 SV9      -0.089300
      7 C8           0.1400    61.0800    81.7470 c3         1 SV9      -0.037800
      8 C10         -4.5450    56.0370    82.0500 c3         1 SV9      -0.150400
      9 C12         -4.3520    54.0790    83.6580 ca         1 SV9      -0.066300
     10 C13         -5.2790    54.1600    84.7120 ca         1 SV9      -0.106500
     11 N1          -4.1180    58.5030    82.4740 n          1 SV9       0.003200
     12 N2          -6.7400    59.3020    84.8910 ns         1 SV9      -0.515600
     13 C3          -2.2610    60.7850    84.7330 ca         1 SV9      -0.103000
     14 N3          -7.7660    58.7450    82.9440 ns         1 SV9      -0.476500
     15 C15         -5.6170    51.7250    84.6470 cp         1 SV9      -0.048000
     16 C16         -6.2820    50.4880    85.1670 cp         1 SV9      -0.020000
     17 C17         -5.5920    49.2520    85.2200 ca         1 SV9      -0.100000
     18 C18         -6.2200    48.0940    85.7050 ca         1 SV9      -0.116000
     19 C19         -7.5520    48.1460    86.1470 ca         1 SV9      -0.104000
     20 C2          -1.1600    61.1750    83.9500 ca         1 SV9      -0.055300
     21 C20         -8.2840    49.3580    86.1140 cp         1 SV9      -0.038000
     22 C21         -9.7060    49.4170    86.5820 cp         1 SV9      -0.031000
     23 C22        -10.5900    48.3260    86.3830 ca         1 SV9      -0.099500
     24 C23        -11.9240    48.3810    86.8210 ca         1 SV9      -0.112000
     25 C24        -12.4040    49.5300    87.4700 ca         1 SV9      -0.111000
     26 C25        -11.5480    50.6220    87.6800 ca         1 SV9      -0.112000
     27 C26        -10.2140    50.5670    87.2400 ca         1 SV9      -0.099500
     28 C27         -7.6250    50.5120    85.6190 ca         1 SV9      -0.089000
     29 C28         -4.6800    51.6640    83.5850 ca         1 SV9      -0.098000
     30 C29         -4.0570    52.8240    83.0950 ca         1 SV9      -0.106500
     31 C30         -5.3740    58.7860    83.0340 cc         1 SV9      -0.371600
     32 C31         -5.4940    59.2200    84.3430 cd         1 SV9       0.203600
     33 C32         -7.9090    59.0920    84.2440 c          1 SV9       0.627000
     34 C33         -6.6130    58.5640    82.2490 c          1 SV9       0.625600
     35 C35         -4.7700    60.0340    87.6210 c3         1 SV9       0.158300
     36 C36         -4.0820    61.4190    87.8720 c3         1 SV9       0.124300
     37 C37         -4.8090    62.2770    88.9740 c3         1 SV9       0.158300
     38 C38         -4.1200    63.6560    89.2130 c3         1 SV9       0.216600
     39 C39         -7.9150    68.3170    90.1590 c3         1 SV9       0.211600
     40 C40         -9.4320    68.6670    90.2350 c5         1 SV9       0.105300
     41 C41        -10.1640    70.2450    88.6270 c5         1 SV9       0.265300
     42 C42         -8.3050    71.3000    87.2290 cc         1 SV9       0.439700
     43 C43         -9.0320    73.3260    87.1250 ca         1 SV9      -0.092600
     44 C44         -9.2460    74.7000    86.8850 ca         1 SV9       0.440900
     45 C45        -11.1640    74.5780    88.1270 ca         1 SV9       0.159900
     46 C46         -9.9520    72.6520    87.8880 ca         1 SV9       0.121500
     47 C47        -10.0890    68.8340    87.9520 c5         1 SV9       0.134300
     48 C48        -10.3750    67.9440    89.2090 c5         1 SV9       0.146300
     49 N4          -4.3110    59.4740    85.0740 na         1 SV9      -0.061000
     50 N5          -9.5010    71.3640    87.9550 na         1 SV9      -0.281300
     51 N6          -7.9860    72.4990    86.7010 nd         1 SV9      -0.578100
     52 N7          -8.3940    75.4610    86.1480 nv         1 SV9      -1.078900
     53 N8         -10.3160    75.3350    87.3900 nb         1 SV9      -0.322000
     54 N9         -11.0400    73.2570    88.4050 nb         1 SV9      -0.204000
     55 O1          -3.0880    57.3730    80.7020 o          1 SV9      -0.592100
     56 O10         -5.6330    66.3700    89.2580 os         1 SV9      -0.723800
     57 O11         -7.3720    64.5110    89.5430 o          1 SV9      -0.838000
     58 O12         -7.7600    66.3060    87.9330 o          1 SV9      -0.838000
     59 O13         -7.7350    66.9130    90.4010 os         1 SV9      -0.580400
     60 O14         -9.6010    70.0850    89.9530 os         1 SV9      -0.461000
     61 O15        -11.0220    68.6370    86.8660 oh         1 SV9      -0.682000
     62 O16        -11.7580    67.9910    89.6380 oh         1 SV9      -0.723000
     63 O2          -8.9910    59.2100    84.7830 o          1 SV9      -0.552000
     64 O3          -6.6380    58.2420    81.0730 o          1 SV9      -0.552000
     65 O4          -6.1680    60.2410    87.3760 oh         1 SV9      -0.759000
     66 O5          -2.7070    61.1960    88.2510 oh         1 SV9      -0.679000
     67 O6          -6.2110    62.4540    88.6300 oh         1 SV9      -0.836000
     68 O7          -4.7890    64.2980    90.2990 os         1 SV9      -0.598400
     69 O8          -5.2280    66.3380    91.7920 o          1 SV9      -0.839000
     70 O9          -3.3250    66.3740    90.2530 o          1 SV9      -0.839000
     71 P1          -4.7240    65.8970    90.4590 p5         1 SV9       1.461800
     72 P2          -7.1520    65.9560    89.2470 p5         1 SV9       1.471800
     73 H1          -6.6050    53.0890    86.0250 ha         1 SV9       0.110500
     74 H2          -1.8830    59.4050    81.1340 ha         1 SV9       0.126000
     75 H3          -2.6990    55.1030    82.7060 hc         1 SV9       0.057200
     76 H4          -3.5030    56.0380    83.9540 hc         1 SV9       0.057200
     77 H5           0.1230    62.1600    81.5630 hc         1 SV9       0.036700
     78 H6           1.1050    60.8290    82.2020 hc         1 SV9       0.036700
     79 H7           0.1020    60.5830    80.7700 hc         1 SV9       0.036700
     80 H8          -5.5240    56.2030    82.5080 hc         1 SV9       0.071200
     81 H9          -4.6380    55.3760    81.1820 hc         1 SV9       0.071200
     82 H10         -5.5170    55.1250    85.1560 ha         1 SV9       0.117000
     83 H11         -6.8300    59.5880    85.8660 hn         1 SV9       0.480000
     84 H12         -2.3650    61.2070    85.7230 ha         1 SV9       0.134000
     85 H13         -8.6180    58.5930    82.4310 hn         1 SV9       0.337500
     86 H14         -0.1130    63.0830    83.9190 hc         1 SV9       0.044367
     87 H15         -0.3980    62.4600    85.5470 hc         1 SV9       0.044367
     88 H16          0.8590    61.7350    84.5410 hc         1 SV9       0.044367
     89 H17         -4.5570    49.1930    84.8950 ha         1 SV9       0.115000
     90 H18         -5.6720    47.1560    85.7440 ha         1 SV9       0.108000
     91 H19         -8.0140    47.2400    86.5310 ha         1 SV9       0.110000
     92 H20        -10.2420    47.4320    85.8710 ha         1 SV9       0.115500
     93 H21        -12.5870    47.5340    86.6550 ha         1 SV9       0.111000
     94 H22        -13.4370    49.5730    87.8100 ha         1 SV9       0.109000
     95 H23        -11.9170    51.5120    88.1860 ha         1 SV9       0.111000
     96 H24         -9.5650    51.4190    87.4250 ha         1 SV9       0.115500
     97 H25         -8.1800    51.4440    85.5590 ha         1 SV9       0.121000
     98 H26         -4.4450    50.7080    83.1230 ha         1 SV9       0.110500
     99 H27         -3.3480    52.7470    82.2740 ha         1 SV9       0.117000
    100 H28         -4.5120    58.1190    86.6500 h1         1 SV9       0.061700
    101 H29         -3.0400    59.0580    86.7130 h1         1 SV9       0.061700
    102 H30         -4.6700    59.4770    88.5620 h1         1 SV9       0.030700
    103 H31         -4.1180    61.9860    86.9320 h1         1 SV9       0.041700
    104 H32         -4.7410    61.7180    89.9180 h1         1 SV9       0.043700
    105 H33         -3.0620    63.5090    89.4640 h1         1 SV9       0.015700
    106 H34         -4.1760    64.2570    88.2950 h1         1 SV9       0.015700
    107 H35         -7.3860    68.8960    90.9270 h1         1 SV9       0.041700
    108 H36         -7.5060    68.6180    89.1860 h1         1 SV9       0.041700
    109 H37         -9.7550    68.4740    91.2660 h1         1 SV9       0.080700
    110 H38        -11.2200    70.5300    88.7280 h2         1 SV9       0.103700
    111 H39         -7.7290    70.3880    87.1280 h5         1 SV9       0.095800
    112 H40        -12.0360    75.0820    88.5390 h5         1 SV9       0.032100
    113 H41         -9.0710    68.6370    87.5930 h1         1 SV9       0.078700
    114 H42        -10.0600    66.9050    89.0310 h1         1 SV9       0.118700
    115 H43         -8.4400    76.4700    86.2600 hn         1 SV9       0.499500
    116 H44         -7.4790    75.0630    85.9460 hn         1 SV9       0.499500
    117 H46        -10.7760    69.2600    86.1440 ho         1 SV9       0.497000
    118 H47        -11.8660    67.3250    90.3570 ho         1 SV9       0.504000
    119 H48         -6.3500    61.1150    87.8680 ho         1 SV9       0.586000
    120 H49         -2.2210    62.0440    88.1520 ho         1 SV9       0.446000
    121 H50         -6.5640    63.2920    89.1140 ho         1 SV9       0.624000
    122 C9          -3.8960    57.3700    81.6260 c          1 SV9       0.573900
    123 C1          -0.1490    62.1660    84.5210 c3         1 SV9      -0.047800
    124 C34         -4.1160    59.1330    86.5150 c3         1 SV9       0.053600
@<TRIPOS>BOND
     1     1     3 ar  
     2     1    13 ar  
     3     1    49 1   
     4     2    10 ar  
     5     2    15 ar  
     6     2    73 1   
     7     3     4 ar  
     8     3    11 1   
     9     4     6 ar  
    10     4    74 1   
    11     5     8 1   
    12     5     9 1   
    13     5    75 1   
    14     5    76 1   
    15     6     7 1   
    16     6    20 ar  
    17     7    77 1   
    18     7    78 1   
    19     7    79 1   
    20     8    80 1   
    21     8    81 1   
    22     8   122 1   
    23     9    10 ar  
    24     9    30 ar  
    25    10    82 1   
    26    11    31 1   
    27    11   122 1   
    28    12    32 1   
    29    12    33 1   
    30    12    83 1   
    31    13    20 ar  
    32    13    84 1   
    33    14    33 1   
    34    14    34 1   
    35    14    85 1   
    36    15    16 1   
    37    15    29 ar  
    38    16    17 ar  
    39    16    28 ar  
    40    17    18 ar  
    41    17    89 1   
    42    18    19 ar  
    43    18    90 1   
    44    19    21 ar  
    45    19    91 1   
    46    20   123 1   
    47    21    22 1   
    48    21    28 ar  
    49    22    23 ar  
    50    22    27 ar  
    51    23    24 ar  
    52    23    92 1   
    53    24    25 ar  
    54    24    93 1   
    55    25    26 ar  
    56    25    94 1   
    57    26    27 ar  
    58    26    95 1   
    59    27    96 1   
    60    28    97 1   
    61    29    30 ar  
    62    29    98 1   
    63    30    99 1   
    64    31    32 2   
    65    31    34 1   
    66    32    49 1   
    67    33    63 2   
    68    34    64 2   
    69    35    36 1   
    70    35    65 1   
    71    35   102 1   
    72    35   124 1   
    73    36    37 1   
    74    36    66 1   
    75    36   103 1   
    76    37    38 1   
    77    37    67 1   
    78    37   104 1   
    79    38    68 1   
    80    38   105 1   
    81    38   106 1   
    82    39    40 1   
    83    39    59 1   
    84    39   107 1   
    85    39   108 1   
    86    40    48 1   
    87    40    60 1   
    88    40   109 1   
    89    41    47 1   
    90    41    50 1   
    91    41    60 1   
    92    41   110 1   
    93    42    50 1   
    94    42    51 2   
    95    42   111 1   
    96    43    44 ar  
    97    43    46 ar  
    98    43    51 1   
    99    44    52 1   
   100    44    53 ar  
   101    45    53 ar  
   102    45    54 ar  
   103    45   112 1   
   104    46    50 1   
   105    46    54 ar  
   106    47    48 1   
   107    47    61 1   
   108    47   113 1   
   109    48    62 1   
   110    48   114 1   
   111    49   124 1   
   112    52   115 1   
   113    52   116 1   
   114    55   122 2   
   115    56    71 1   
   116    56    72 1   
   117    57    72 1   
   118    58    72 1   
   119    59    72 1   
   120    61   117 1   
   121    62   118 1   
   122    65   119 1   
   123    66   120 1   
   124    67   121 1   
   125    68    71 1   
   126    69    71 1   
   127    70    71 1   
   128    86   123 1   
   129    87   123 1   
   130    88   123 1   
   131   100   124 1   
   132   101   124 1   
@<TRIPOS>SUBSTRUCTURE
     1 SV9         1 TEMP              0 ****  ****    0 ROOT
