@<TRIPOS>MOLECULE
SVB
   45    47     1     0     0
SMALL
bcc


@<TRIPOS>ATOM
      1 CL1         -4.7910    -2.8730     0.0420 cl         1 SVB      -0.080400
      2 C1          -4.9620    -1.1650     0.2060 ca         1 SVB       0.046400
      3 C2          -3.8420    -0.4070     0.5490 ca         1 SVB      -0.070800
      4 C3          -2.5550    -1.0780     0.7750 ce         1 SVB       0.017800
      5 C4          -1.4750    -0.8990     0.0170 cd         1 SVB      -0.128600
      6 S5          -1.3290     0.1410    -1.3780 ss         1 SVB      -0.011200
      7 C6           0.3190    -0.3560    -1.6510 cs         1 SVB       0.389000
      8 N7           0.7070    -1.2910    -0.7410 n          1 SVB      -0.421400
      9 C8           2.0560    -1.7920    -0.7100 c3         1 SVB      -0.001000
     10 C9          -0.2010    -1.6150     0.2560 c          1 SVB       0.725700
     11 O10          0.0270    -2.3750     1.1600 o          1 SVB      -0.543500
     12 S11          1.2320     0.2540    -2.8550 s          1 SVB      -0.403400
     13 C12         -4.0030     0.9740     0.6840 ca         1 SVB       0.044400
     14 CL2         -2.6750     1.9440     1.1760 cl         1 SVB      -0.042400
     15 C13         -5.2400     1.5670     0.4550 ca         1 SVB       0.022400
     16 CL3         -5.4370     3.2660     0.6190 cl         1 SVB      -0.060400
     17 C14         -6.3290     0.7890     0.0990 ca         1 SVB      -0.095000
     18 C15         -6.1940    -0.5820    -0.0230 ca         1 SVB      -0.113000
     19 H1          -2.4980    -1.7960     1.5870 ha         1 SVB       0.173000
     20 H3           2.0660    -2.7120    -0.1260 h1         1 SVB       0.092700
     21 H4           2.3770    -2.0370    -1.7220 h1         1 SVB       0.092700
     22 H6          -7.2890     1.2530    -0.0810 ha         1 SVB       0.159000
     23 H7          -7.0460    -1.1880    -0.2980 ha         1 SVB       0.160000
     24 C5           2.9710    -0.7690    -0.0430 c          1 SVB       0.680100
     25 N1           4.2670    -0.9480    -0.3440 ns         1 SVB      -0.453300
     26 H8           4.5400    -1.6840    -0.9870 hn         1 SVB       0.302500
     27 N2           5.2480    -0.2070     0.2760 n3         1 SVB      -0.450600
     28 C11          6.0270     0.5730    -0.6730 c6         1 SVB       0.148800
     29 C7           7.0140     1.4390     0.0870 c6         1 SVB       0.163300
     30 N3           7.8750     0.6280     0.9240 n3         1 SVB      -0.719600
     31 C17          7.0830    -0.1500     1.8570 c6         1 SVB       0.163300
     32 C18          6.0980    -1.0340     1.1180 c6         1 SVB       0.148800
     33 C10          8.8570     1.4360     1.6110 c3         1 SVB       0.152100
     34 O1           2.5300     0.0780     0.7060 o          1 SVB      -0.555100
     35 H2           6.5700    -0.0730    -1.3810 h1         1 SVB       0.047700
     36 H5           5.3510     1.2070    -1.2470 h1         1 SVB       0.047700
     37 H9           7.6260     1.9890    -0.6310 h1         1 SVB       0.045200
     38 H10          6.4560     2.1860     0.6770 h1         1 SVB       0.045200
     39 H11          7.7470    -0.7800     2.4520 h1         1 SVB       0.045200
     40 H12          6.5310     0.4970     2.5610 h1         1 SVB       0.045200
     41 H13          5.4730    -1.5640     1.8380 h1         1 SVB       0.047700
     42 H14          6.6460    -1.7850     0.5280 h1         1 SVB       0.047700
     43 H15          8.4070     2.1740     2.2930 h1         1 SVB       0.032367
     44 H16          9.5210     0.8000     2.1990 h1         1 SVB       0.032367
     45 H17          9.4680     1.9790     0.8880 h1         1 SVB       0.032367
@<TRIPOS>BOND
     1     1     2 1   
     2     2     3 ar  
     3     2    18 ar  
     4     3     4 1   
     5     3    13 ar  
     6     4     5 2   
     7     4    19 1   
     8     5     6 1   
     9     5    10 1   
    10     6     7 1   
    11     7     8 1   
    12     7    12 2   
    13     8     9 1   
    14     8    10 1   
    15     9    20 1   
    16     9    21 1   
    17     9    24 1   
    18    10    11 2   
    19    13    14 1   
    20    13    15 ar  
    21    15    16 1   
    22    15    17 ar  
    23    17    18 ar  
    24    17    22 1   
    25    18    23 1   
    26    24    25 1   
    27    24    34 2   
    28    25    26 1   
    29    25    27 1   
    30    27    28 1   
    31    27    32 1   
    32    28    29 1   
    33    28    35 1   
    34    28    36 1   
    35    29    30 1   
    36    29    37 1   
    37    29    38 1   
    38    30    31 1   
    39    30    33 1   
    40    31    32 1   
    41    31    39 1   
    42    31    40 1   
    43    32    41 1   
    44    32    42 1   
    45    33    43 1   
    46    33    44 1   
    47    33    45 1   
@<TRIPOS>SUBSTRUCTURE
     1 SVB         1 TEMP              0 ****  ****    0 ROOT
