@<TRIPOS>MOLECULE
SVB
   45    47     1     0     0
SMALL
No Charge or Current Charge


@<TRIPOS>ATOM
      1 Cl1         -4.6880    -3.0740     0.2530 cl         1 SVB      -0.172000
      2 C1          -5.0440    -1.3520     0.3770 ca         1 SVB       0.138000
      3 C2          -4.0130    -0.4230     0.6310 ca         1 SVB      -0.070800
      4 C3          -2.6120    -0.8980     0.7990 ce         1 SVB      -0.032200
      5 C4          -1.5630    -0.7580    -0.0830 cd         1 SVB      -0.128600
      6 S5          -1.7300     0.0760    -1.6080 ss         1 SVB      -0.011200
      7 C6          -0.0380    -0.2400    -2.0380 cs         1 SVB       0.322000
      8 N7           0.5830    -0.9640    -1.0370 n          1 SVB      -0.287400
      9 C8           2.0130    -1.3820    -1.0860 c3         1 SVB      -0.001000
     10 C9          -0.2040    -1.2890     0.0830 c          1 SVB       0.583200
     11 O10          0.1950    -1.9240     1.0500 o          1 SVB      -0.468000
     12 S11          0.6560     0.2970    -3.4650 s          1 SVB      -0.403400
     13 C12         -4.3280     0.9520     0.7250 ca         1 SVB       0.136000
     14 Cl2         -3.0550     2.1280     1.0800 cl         1 SVB      -0.134000
     15 C13         -5.6610     1.3850     0.5550 ca         1 SVB       0.114000
     16 Cl3         -6.0840     3.0950     0.6670 cl         1 SVB      -0.152000
     17 C14         -6.6770     0.4510     0.2960 ca         1 SVB      -0.077000
     18 C15         -6.3680    -0.9170     0.2090 ca         1 SVB      -0.095000
     19 H1          -2.4120    -1.4700     1.7090 ha         1 SVB       0.223000
     20 H3           2.1160    -2.3890    -0.6630 h1         1 SVB       0.092700
     21 H4           2.3570    -1.4340    -2.1260 h1         1 SVB       0.092700
     22 H6          -7.7030     0.7880     0.1650 ha         1 SVB       0.141000
     23 H7          -7.1550    -1.6410     0.0100 ha         1 SVB       0.142000
     24 C5           2.9790    -0.4590    -0.3220 c          1 SVB       0.613100
     25 N1           4.3120    -0.8630    -0.3610 ns         1 SVB      -0.386300
     26 H8           4.5270    -1.7110    -0.8800 hn         1 SVB       0.302500
     27 N2           5.3670    -0.1430     0.2830 n3         1 SVB      -0.450600
     28 C11          6.3610     0.4080    -0.6810 c6         1 SVB       0.148800
     29 C7           7.4690     1.2290     0.0460 c6         1 SVB       0.163300
     30 N3           8.1450     0.4380     1.1200 n3         1 SVB      -0.719600
     31 C17          7.1350    -0.1050     2.0810 c6         1 SVB       0.163300
     32 C18          6.0250    -0.9310     1.3640 c6         1 SVB       0.148800
     33 C10          9.2250     1.1920     1.7920 c3         1 SVB       0.152100
     34 O1           2.6090     0.5490     0.2730 o          1 SVB      -0.555100
     35 H2           6.8370    -0.4090    -1.2410 h1         1 SVB       0.047700
     36 H5           5.8600     1.0570    -1.4130 h1         1 SVB       0.047700
     37 H9           8.2030     1.5640    -0.7010 h1         1 SVB       0.045200
     38 H10          7.0100     2.1330     0.4730 h1         1 SVB       0.045200
     39 H11          7.6240    -0.7480     2.8270 h1         1 SVB       0.045200
     40 H12          6.6560     0.7190     2.6310 h1         1 SVB       0.045200
     41 H13          5.2820    -1.2500     2.1080 h1         1 SVB       0.047700
     42 H14          6.4780    -1.8410     0.9450 h1         1 SVB       0.047700
     43 H15          8.8250     2.0770     2.3060 h1         1 SVB       0.032367
     44 H16          9.7330     0.5630     2.5350 h1         1 SVB       0.032367
     45 H17          9.9750     1.5280     1.0630 h1         1 SVB       0.032367
@<TRIPOS>BOND
     1     1     2 1   
     2     2     3 ar  
     3     2    18 ar  
     4     3     4 1   
     5     3    13 ar  
     6     4     5 2   
     7     4    19 1   
     8     5     6 1   
     9     5    10 1   
    10     6     7 1   
    11     7     8 1   
    12     7    12 2   
    13     8     9 1   
    14     8    10 1   
    15     9    20 1   
    16     9    21 1   
    17     9    24 1   
    18    10    11 2   
    19    13    14 1   
    20    13    15 ar  
    21    15    16 1   
    22    15    17 ar  
    23    17    18 ar  
    24    17    22 1   
    25    18    23 1   
    26    24    25 1   
    27    24    34 2   
    28    25    26 1   
    29    25    27 1   
    30    27    28 1   
    31    27    32 1   
    32    28    29 1   
    33    28    35 1   
    34    28    36 1   
    35    29    30 1   
    36    29    37 1   
    37    29    38 1   
    38    30    31 1   
    39    30    33 1   
    40    31    32 1   
    41    31    39 1   
    42    31    40 1   
    43    32    41 1   
    44    32    42 1   
    45    33    43 1   
    46    33    44 1   
    47    33    45 1   
@<TRIPOS>SUBSTRUCTURE
     1 SVB         1 TEMP              0 ****  ****    0 ROOT
