@<TRIPOS>MOLECULE
SVD
   28    28     1     0     0
SMALL
abcg2


@<TRIPOS>ATOM
      1 N1          35.4150   129.3420    21.7500 n3         1 SVD      -0.179100
      2 C4          34.6340   128.1310    21.4020 c5         1 SVD       0.131500
      3 C5          35.2350   127.0320    22.2790 c5         1 SVD      -0.186400
      4 C6          36.6110   127.5610    22.5990 c          1 SVD       0.564000
      5 N           36.6340   128.8500    22.1960 n          1 SVD      -0.316200
      6 O           37.5480   126.9570    23.0880 o          1 SVD      -0.535000
      7 C1          34.6700   127.8670    19.8830 c3         1 SVD      -0.031000
      8 C2          34.1060   129.0910    19.1580 c3         1 SVD      -0.086100
      9 C3          36.0790   127.5710    19.3660 c3         1 SVD      -0.086100
     10 O1          34.7900   129.9650    22.8570 oh         1 SVD      -0.506300
     11 H1          33.5970   128.3340    21.6690 h1         1 SVD       0.082700
     12 H2          34.6780   126.8910    23.2080 hc         1 SVD       0.087700
     13 H3          35.3050   126.0580    21.7980 hc         1 SVD       0.087700
     14 H4          38.6560   129.1880    22.4470 h1         1 SVD       0.047367
     15 H5          37.8380   130.3080    21.3480 h1         1 SVD       0.047367
     16 H6          37.6240   130.4660    23.1030 h1         1 SVD       0.047367
     17 H7          32.7480   126.8400    19.9570 hc         1 SVD       0.038033
     18 H8          33.7010   126.4990    18.5130 hc         1 SVD       0.038033
     19 H9          34.1280   125.7450    20.0400 hc         1 SVD       0.038033
     20 H10         33.0860   129.3050    19.4850 hc         1 SVD       0.038033
     21 H11         34.7120   129.9790    19.3400 hc         1 SVD       0.038033
     22 H12         34.0770   128.9180    18.0810 hc         1 SVD       0.038033
     23 H13         36.5280   126.7070    19.8610 hc         1 SVD       0.038033
     24 H14         36.0400   127.3400    18.3000 hc         1 SVD       0.038033
     25 H15         36.7500   128.4220    19.4900 hc         1 SVD       0.038033
     26 H16         34.6900   130.8810    22.5770 ho         1 SVD       0.461000
     27 C7          37.7450   129.7570    22.2830 c3         1 SVD       0.111300
     28 C           33.7620   126.6690    19.5900 c3         1 SVD      -0.086100
@<TRIPOS>BOND
     1     1     2 1   
     2     1     5 1   
     3     1    10 1   
     4     2     3 1   
     5     2     7 1   
     6     2    11 1   
     7     3     4 1   
     8     3    12 1   
     9     3    13 1   
    10     4     5 1   
    11     4     6 2   
    12     5    27 1   
    13     7     8 1   
    14     7     9 1   
    15     7    28 1   
    16     8    20 1   
    17     8    21 1   
    18     8    22 1   
    19     9    23 1   
    20     9    24 1   
    21     9    25 1   
    22    10    26 1   
    23    14    27 1   
    24    15    27 1   
    25    16    27 1   
    26    17    28 1   
    27    18    28 1   
    28    19    28 1   
@<TRIPOS>SUBSTRUCTURE
     1 SVD         1 TEMP              0 ****  ****    0 ROOT
