@<TRIPOS>MOLECULE
SVD
   28    28     1     0     0
SMALL
No Charge or Current Charge


@<TRIPOS>ATOM
      1 N1          35.3340   129.3140    22.0280 n3         1 SVD      -0.179100
      2 C4          34.6080   128.1100    21.4880 c5         1 SVD       0.131500
      3 C5          35.2310   126.9810    22.3740 c5         1 SVD      -0.186400
      4 C6          36.6780   127.4200    22.5260 c          1 SVD       0.564000
      5 N           36.6090   128.8010    22.3450 n          1 SVD      -0.316200
      6 O           37.7070   126.7570    22.5060 o          1 SVD      -0.535000
      7 C1          34.6680   127.9150    19.9220 c3         1 SVD      -0.031000
      8 C2          34.0590   129.1660    19.2280 c3         1 SVD      -0.086100
      9 C3          36.1060   127.7100    19.3680 c3         1 SVD      -0.086100
     10 O1          34.4830   129.9970    22.9890 oh         1 SVD      -0.506300
     11 H1          33.5360   128.1910    21.7210 h1         1 SVD       0.082700
     12 H2          34.7670   127.0460    23.3640 hc         1 SVD       0.087700
     13 H3          35.1510   125.9560    22.0020 hc         1 SVD       0.087700
     14 H4          38.4400   129.5640    23.0730 h1         1 SVD       0.047367
     15 H5          38.3910   129.2730    21.3090 h1         1 SVD       0.047367
     16 H6          37.5340   130.6770    22.0080 h1         1 SVD       0.047367
     17 H7          32.7860   126.7740    19.8860 hc         1 SVD       0.038033
     18 H8          33.7610   126.5890    18.4180 hc         1 SVD       0.038033
     19 H9          34.2360   125.7510    19.8990 hc         1 SVD       0.038033
     20 H10         33.0340   129.3460    19.5740 hc         1 SVD       0.038033
     21 H11         34.6500   130.0640    19.4420 hc         1 SVD       0.038033
     22 H12         34.0300   129.0390    18.1390 hc         1 SVD       0.038033
     23 H13         36.5780   126.8190    19.7980 hc         1 SVD       0.038033
     24 H14         36.0880   127.5780    18.2790 hc         1 SVD       0.038033
     25 H15         36.7430   128.5770    19.5800 hc         1 SVD       0.038033
     26 H16         34.5500   130.9420    22.7200 ho         1 SVD       0.461000
     27 C7          37.8160   129.6300    22.1720 c3         1 SVD       0.111300
     28 C           33.8130   126.6840    19.5090 c3         1 SVD      -0.086100
@<TRIPOS>BOND
     1     1     2 1   
     2     1     5 1   
     3     1    10 1   
     4     2     3 1   
     5     2     7 1   
     6     2    11 1   
     7     3     4 1   
     8     3    12 1   
     9     3    13 1   
    10     4     5 1   
    11     4     6 2   
    12     5    27 1   
    13     7     8 1   
    14     7     9 1   
    15     7    28 1   
    16     8    20 1   
    17     8    21 1   
    18     8    22 1   
    19     9    23 1   
    20     9    24 1   
    21     9    25 1   
    22    10    26 1   
    23    14    27 1   
    24    15    27 1   
    25    16    27 1   
    26    17    28 1   
    27    18    28 1   
    28    19    28 1   
@<TRIPOS>SUBSTRUCTURE
     1 SVD         1 TEMP              0 ****  ****    0 ROOT
