@<TRIPOS>MOLECULE
SVE
   88    93     1     0     0
SMALL
abcg2


@<TRIPOS>ATOM
      1 C1           4.1040    -2.4900    -1.2250 c6         1 SVE       0.000900
      2 C2           2.8520    -3.2120    -0.7180 c6         1 SVE      -0.016100
      3 C3           4.2990    -1.2320    -0.4460 cc         1 SVE      -0.096300
      4 C4           3.2320    -0.5480     0.1000 cd         1 SVE      -0.257500
      5 N5           3.7260     0.5490     0.7210 na         1 SVE       0.193800
      6 N6           5.0320     0.6120     0.6120 nd         1 SVE      -0.510800
      7 C7           5.4070    -0.4490    -0.0990 cc         1 SVE       0.190500
      8 C8           6.8260    -0.6900    -0.4250 c          1 SVE       0.539600
      9 N9           7.6970     0.1450     0.1750 ns         1 SVE      -0.160000
     10 O10          7.1590    -1.5840    -1.1880 o          1 SVE      -0.592100
     11 C11          3.0060     1.5790     1.4430 c3         1 SVE       0.073900
     12 C12          1.8600    -0.9810    -0.0580 ca         1 SVE       0.246500
     13 C13          1.6800    -2.2910    -0.5270 ca         1 SVE      -0.203300
     14 C14          0.3640    -2.6540    -0.7210 ca         1 SVE       0.146900
     15 N15         -0.6660    -1.8460    -0.4740 nb         1 SVE      -0.224000
     16 C16         -0.3730    -0.6420    -0.0160 ca         1 SVE       0.385900
     17 N17          0.8540    -0.1640     0.1940 nb         1 SVE      -0.243000
     18 N18         -1.3640     0.2540     0.2910 nu         1 SVE      -0.921900
     19 C19         -2.7350     0.1460     0.2360 ca         1 SVE       0.365000
     20 C20         -3.5030     1.2120     0.7350 ca         1 SVE       0.008100
     21 C21         -4.8770     1.2270     0.6700 ca         1 SVE      -0.019000
     22 C22         -5.5650     0.1360     0.1480 ca         1 SVE      -0.180600
     23 C23         -4.8220    -0.9340    -0.3360 ca         1 SVE      -0.046000
     24 C24         -3.4380    -0.9330    -0.3070 ca         1 SVE      -0.154000
     25 O25         -2.8300     2.3180     1.2460 os         1 SVE      -0.406100
     26 C26         -7.0560     0.2070     0.1030 c          1 SVE       0.621700
     27 N27         -7.7010    -0.9690     0.0590 ns         1 SVE      -0.499900
     28 O28         -7.6290     1.2900     0.1250 o          1 SVE      -0.603100
     29 C29         -9.1390    -1.1090    -0.0430 c6         1 SVE       0.108700
     30 C30         -9.6390    -2.1950     0.9010 c6         1 SVE      -0.091400
     31 C31        -11.1410    -2.3770     0.7530 c6         1 SVE       0.167300
     32 N32        -11.5040    -2.6890    -0.6170 n3         1 SVE      -0.718600
     33 C33        -11.0870    -1.6350    -1.5220 c6         1 SVE       0.167300
     34 C34         -9.5810    -1.4260    -1.4690 c6         1 SVE      -0.091400
     35 C35        -12.9180    -2.9580    -0.7370 c3         1 SVE       0.153100
     36 C36         -2.7320     2.4330     2.5820 c3         1 SVE       0.509000
     37 F37         -2.1600     1.3670     3.1450 f          1 SVE      -0.106667
     38 F38         -1.9850     3.4940     2.8340 f          1 SVE      -0.106667
     39 F39         -3.9120     2.5990     3.1760 f          1 SVE      -0.106667
     40 C40          9.1020     0.0680    -0.0100 ca         1 SVE      -0.041000
     41 C41          9.8840    -0.5570     0.9640 ca         1 SVE      -0.064300
     42 C42         11.2630    -0.6060     0.7770 ca         1 SVE      -0.110000
     43 C43         11.8470    -0.0530    -0.3510 ca         1 SVE      -0.103000
     44 C44         11.0550     0.5670    -1.3050 ca         1 SVE      -0.110000
     45 C45          9.6740     0.6430    -1.1500 ca         1 SVE      -0.064300
     46 C46          8.8500     1.3850    -2.1670 c3         1 SVE      -0.029600
     47 C47          8.4760     2.7910    -1.7010 c3         1 SVE      -0.086600
     48 C48          9.2770    -1.2100     2.1760 c3         1 SVE      -0.029600
     49 C49          8.9510    -2.6830     1.9300 c3         1 SVE      -0.086600
     50 H10          4.9680    -3.1450    -1.1370 hc         1 SVE       0.073200
     51 H11          4.0010    -2.2490    -2.2870 hc         1 SVE       0.073200
     52 H20          2.5840    -4.0250    -1.3940 hc         1 SVE       0.056700
     53 H21          3.0850    -3.6750     0.2470 hc         1 SVE       0.056700
     54 H111         2.3330     1.1300     2.1670 h1         1 SVE       0.067700
     55 H112         3.7380     2.1930     1.9580 h1         1 SVE       0.067700
     56 H113         2.4280     2.1940     0.7580 h1         1 SVE       0.067700
     57 H9           7.3260     0.8350     0.8130 hn         1 SVE       0.173000
     58 H14          0.1160    -3.6420    -1.0930 h4         1 SVE       0.029100
     59 H18         -0.9930     1.1420     0.5920 hn         1 SVE       0.524000
     60 H24         -2.8980    -1.7720    -0.7130 ha         1 SVE       0.159000
     61 H22         -5.4210     2.0930     1.0220 ha         1 SVE       0.158000
     62 H23         -5.3060    -1.7900    -0.7880 ha         1 SVE       0.117000
     63 H27         -7.1650    -1.8210     0.1080 hn         1 SVE       0.311500
     64 H29         -9.5800    -0.1550     0.2570 h1         1 SVE       0.081700
     65 H301        -9.1380    -3.1410     0.6700 hc         1 SVE       0.052450
     66 H302        -9.4000    -1.9400     1.9350 hc         1 SVE       0.052450
     67 H341        -9.3000    -0.6130    -2.1410 hc         1 SVE       0.052450
     68 H342        -9.0700    -2.3300    -1.8150 hc         1 SVE       0.052450
     69 H311       -11.4760    -3.1920     1.3980 h1         1 SVE       0.034450
     70 H312       -11.6570    -1.4660     1.1060 h1         1 SVE       0.034450
     71 H331       -11.3860    -1.9050    -2.5380 h1         1 SVE       0.034450
     72 H332       -11.5920    -0.6800    -1.2870 h1         1 SVE       0.034450
     73 H351       -13.5500    -2.0970    -0.4660 h1         1 SVE       0.031033
     74 H352       -13.1620    -3.2380    -1.7620 h1         1 SVE       0.031033
     75 H353       -13.1990    -3.7880    -0.0870 h1         1 SVE       0.031033
     76 H42         11.8810    -1.0850     1.5270 ha         1 SVE       0.113000
     77 H481         9.9820    -1.1340     3.0060 hc         1 SVE       0.047450
     78 H482         8.3750    -0.6830     2.4890 hc         1 SVE       0.047450
     79 H43         12.9200    -0.1000    -0.4850 ha         1 SVE       0.114000
     80 H44         11.5120     1.0070    -2.1830 ha         1 SVE       0.113000
     81 H461         9.4260     1.4600    -3.0920 hc         1 SVE       0.047450
     82 H462         7.9460     0.8300    -2.4200 hc         1 SVE       0.047450
     83 H471         7.9200     3.3190    -2.4770 hc         1 SVE       0.035867
     84 H472         7.8510     2.7650    -0.8070 hc         1 SVE       0.035867
     85 H473         9.3660     3.3770    -1.4700 hc         1 SVE       0.035867
     86 H491         8.2300    -2.8050     1.1220 hc         1 SVE       0.035867
     87 H492         9.8500    -3.2390     1.6590 hc         1 SVE       0.035867
     88 H493         8.5330    -3.1430     2.8260 hc         1 SVE       0.035867
@<TRIPOS>BOND
     1     1     2 1   
     2     1     3 1   
     3     1    50 1   
     4     1    51 1   
     5     2    13 1   
     6     2    52 1   
     7     2    53 1   
     8     3     4 2   
     9     3     7 1   
    10     4     5 1   
    11     4    12 1   
    12     5     6 1   
    13     5    11 1   
    14     6     7 2   
    15     7     8 1   
    16     8     9 1   
    17     8    10 2   
    18     9    40 1   
    19     9    57 1   
    20    11    54 1   
    21    11    55 1   
    22    11    56 1   
    23    12    13 ar  
    24    12    17 ar  
    25    13    14 ar  
    26    14    15 ar  
    27    14    58 1   
    28    15    16 ar  
    29    16    17 ar  
    30    16    18 1   
    31    18    19 1   
    32    18    59 1   
    33    19    20 ar  
    34    19    24 ar  
    35    20    21 ar  
    36    20    25 1   
    37    21    22 ar  
    38    21    61 1   
    39    22    23 ar  
    40    22    26 1   
    41    23    24 ar  
    42    23    62 1   
    43    24    60 1   
    44    25    36 1   
    45    26    27 1   
    46    26    28 2   
    47    27    29 1   
    48    27    63 1   
    49    29    30 1   
    50    29    34 1   
    51    29    64 1   
    52    30    31 1   
    53    30    65 1   
    54    30    66 1   
    55    31    32 1   
    56    31    69 1   
    57    31    70 1   
    58    32    33 1   
    59    32    35 1   
    60    33    34 1   
    61    33    71 1   
    62    33    72 1   
    63    34    67 1   
    64    34    68 1   
    65    35    73 1   
    66    35    74 1   
    67    35    75 1   
    68    36    37 1   
    69    36    38 1   
    70    36    39 1   
    71    40    41 ar  
    72    40    45 ar  
    73    41    42 ar  
    74    41    48 1   
    75    42    43 ar  
    76    42    76 1   
    77    43    44 ar  
    78    43    79 1   
    79    44    45 ar  
    80    44    80 1   
    81    45    46 1   
    82    46    47 1   
    83    46    81 1   
    84    46    82 1   
    85    47    83 1   
    86    47    84 1   
    87    47    85 1   
    88    48    49 1   
    89    48    77 1   
    90    48    78 1   
    91    49    86 1   
    92    49    87 1   
    93    49    88 1   
@<TRIPOS>SUBSTRUCTURE
     1 SVE         1 TEMP              0 ****  ****    0 ROOT
