@<TRIPOS>MOLECULE
SVE
   88    93     1     0     0
SMALL
No Charge or Current Charge


@<TRIPOS>ATOM
      1 C1           4.2620    -2.2660    -1.5370 c6         1 SVE       0.000900
      2 C2           2.8920    -3.0120    -1.4810 c6         1 SVE      -0.016100
      3 C3           4.3670    -1.2250    -0.4410 cc         1 SVE      -0.096300
      4 C4           3.2980    -0.6950     0.1980 cd         1 SVE      -0.257500
      5 N5           3.8260     0.2650     1.0680 na         1 SVE       0.193800
      6 N6           5.2120     0.3360     0.9840 nd         1 SVE      -0.510800
      7 C7           5.5190    -0.5670     0.0540 cc         1 SVE       0.190500
      8 C8           6.9160    -0.8430    -0.4330 c          1 SVE       0.539600
      9 N9           7.8650    -0.0700     0.2170 ns         1 SVE      -0.160000
     10 O10          7.2230    -1.6580    -1.3010 o          1 SVE      -0.592100
     11 C11          3.0910     1.1320     2.0010 c3         1 SVE       0.073900
     12 C12          1.9180    -1.0800    -0.0950 ca         1 SVE       0.246500
     13 C13          1.7100    -2.1710    -0.9590 ca         1 SVE      -0.203300
     14 C14          0.3780    -2.5020    -1.2590 ca         1 SVE       0.146900
     15 N15         -0.6530    -1.8000    -0.7490 nb         1 SVE      -0.224000
     16 C16         -0.3430    -0.7780     0.0730 ca         1 SVE       0.385900
     17 N17          0.8910    -0.3760     0.4180 nb         1 SVE      -0.243000
     18 N18         -1.3660    -0.0030     0.6000 nu         1 SVE      -0.921900
     19 C19         -2.7680    -0.0380     0.5920 ca         1 SVE       0.365000
     20 C20         -3.4640     1.1630     0.8740 ca         1 SVE       0.008100
     21 C21         -4.8800     1.1610     0.8810 ca         1 SVE      -0.019000
     22 C22         -5.6090    -0.0220     0.6230 ca         1 SVE      -0.180600
     23 C23         -4.8970    -1.2160     0.3660 ca         1 SVE      -0.046000
     24 C24         -3.4930    -1.2190     0.3560 ca         1 SVE      -0.154000
     25 O25         -2.7090     2.3080     1.1360 os         1 SVE      -0.406100
     26 C26         -7.1230     0.0260     0.6410 c          1 SVE       0.621700
     27 N27         -7.7850    -1.1530     0.3790 ns         1 SVE      -0.499900
     28 O28         -7.7370     1.0580     0.8770 o          1 SVE      -0.603100
     29 C29         -9.2430    -1.3210     0.3250 c6         1 SVE       0.108700
     30 C30         -9.6240    -2.7980     0.5780 c6         1 SVE      -0.091400
     31 C31        -11.1530    -3.0020     0.4600 c6         1 SVE       0.167300
     32 N32        -11.6560    -2.5620    -0.8690 n3         1 SVE      -0.718600
     33 C33        -11.3220    -1.1370    -1.1380 c6         1 SVE       0.167300
     34 C34         -9.7970    -0.8910    -1.0540 c6         1 SVE      -0.091400
     35 C35        -13.0970    -2.8440    -1.0470 c3         1 SVE       0.153100
     36 C36         -3.2670     3.6070     1.4310 c3         1 SVE       0.509000
     37 F37         -4.0260     3.5920     2.5510 f          1 SVE      -0.106667
     38 F38         -2.2830     4.5110     1.6350 f          1 SVE      -0.106667
     39 F39         -4.0280     4.0760     0.4160 f          1 SVE      -0.106667
     40 C40          9.2680    -0.0100     0.0240 ca         1 SVE      -0.041000
     41 C41         10.1250    -0.5020     1.0390 ca         1 SVE      -0.064300
     42 C42         11.5200    -0.4500     0.8570 ca         1 SVE      -0.110000
     43 C43         12.0640     0.0990    -0.3130 ca         1 SVE      -0.103000
     44 C44         11.2180     0.6080    -1.3080 ca         1 SVE      -0.110000
     45 C45          9.8180     0.5630    -1.1540 ca         1 SVE      -0.064300
     46 C46          8.9450     1.1800    -2.2510 c3         1 SVE      -0.029600
     47 C47          8.3690     2.5520    -1.8500 c3         1 SVE      -0.086600
     48 C48          9.5750    -1.1110     2.3310 c3         1 SVE      -0.029600
     49 C49          9.1920    -2.5950     2.1650 c3         1 SVE      -0.086600
     50 H10          5.0680    -3.0090    -1.4760 hc         1 SVE       0.073200
     51 H11          4.3650    -1.7780    -2.5160 hc         1 SVE       0.073200
     52 H20          2.6580    -3.4200    -2.4740 hc         1 SVE       0.056700
     53 H21          3.0000    -3.8840    -0.8210 hc         1 SVE       0.056700
     54 H111         2.4620     0.5150     2.6530 h1         1 SVE       0.067700
     55 H112         3.7960     1.7030     2.6160 h1         1 SVE       0.067700
     56 H113         2.4620     1.8260     1.4330 h1         1 SVE       0.067700
     57 H9           7.5000     0.5340     0.9440 hn         1 SVE       0.173000
     58 H14          0.1290    -3.3420    -1.9060 h4         1 SVE       0.029100
     59 H18         -1.0300     0.8810     0.9830 hn         1 SVE       0.524000
     60 H24         -2.9780    -2.1560     0.1820 ha         1 SVE       0.159000
     61 H22         -5.4310     2.0730     1.0870 ha         1 SVE       0.158000
     62 H23         -5.4120    -2.1540     0.1770 ha         1 SVE       0.117000
     63 H27         -7.2090    -1.9610     0.1920 hn         1 SVE       0.311500
     64 H29         -9.7010    -0.6980     1.1090 h1         1 SVE       0.081700
     65 H301        -9.1130    -3.4510    -0.1430 hc         1 SVE       0.052450
     66 H302        -9.2890    -3.1070     1.5770 hc         1 SVE       0.052450
     67 H341        -9.5890     0.1730    -1.2290 hc         1 SVE       0.052450
     68 H342        -9.2910    -1.4470    -1.8550 hc         1 SVE       0.052450
     69 H311       -11.3790    -4.0670     0.6190 h1         1 SVE       0.034450
     70 H312       -11.6540    -2.4410     1.2630 h1         1 SVE       0.034450
     71 H331       -11.6700    -0.8470    -2.1400 h1         1 SVE       0.034450
     72 H332       -11.8320    -0.4830    -0.4160 h1         1 SVE       0.034450
     73 H351       -13.7000    -2.2790    -0.3230 h1         1 SVE       0.031033
     74 H352       -13.4250    -2.5680    -2.0580 h1         1 SVE       0.031033
     75 H353       -13.3030    -3.9140    -0.9050 h1         1 SVE       0.031033
     76 H42         12.1870    -0.8360     1.6240 ha         1 SVE       0.113000
     77 H481        10.3200    -1.0320     3.1320 hc         1 SVE       0.047450
     78 H482         8.7020    -0.5510     2.6860 hc         1 SVE       0.047450
     79 H43         13.1430     0.1390    -0.4440 ha         1 SVE       0.114000
     80 H44         11.6560     1.0470    -2.2020 ha         1 SVE       0.113000
     81 H461         9.5290     1.3090    -3.1710 hc         1 SVE       0.047450
     82 H462         8.1230     0.5110    -2.5240 hc         1 SVE       0.047450
     83 H471         7.7780     2.9730    -2.6730 hc         1 SVE       0.035867
     84 H472         7.7180     2.4660    -0.9720 hc         1 SVE       0.035867
     85 H473         9.1770     3.2550    -1.6140 hc         1 SVE       0.035867
     86 H491         8.4100    -2.7150     1.4070 hc         1 SVE       0.035867
     87 H492        10.0640    -3.1850     1.8590 hc         1 SVE       0.035867
     88 H493         8.8170    -3.0010     3.1120 hc         1 SVE       0.035867
@<TRIPOS>BOND
     1     1     2 1   
     2     1     3 1   
     3     1    50 1   
     4     1    51 1   
     5     2    13 1   
     6     2    52 1   
     7     2    53 1   
     8     3     4 2   
     9     3     7 1   
    10     4     5 1   
    11     4    12 1   
    12     5     6 1   
    13     5    11 1   
    14     6     7 2   
    15     7     8 1   
    16     8     9 1   
    17     8    10 2   
    18     9    40 1   
    19     9    57 1   
    20    11    54 1   
    21    11    55 1   
    22    11    56 1   
    23    12    13 ar  
    24    12    17 ar  
    25    13    14 ar  
    26    14    15 ar  
    27    14    58 1   
    28    15    16 ar  
    29    16    17 ar  
    30    16    18 1   
    31    18    19 1   
    32    18    59 1   
    33    19    20 ar  
    34    19    24 ar  
    35    20    21 ar  
    36    20    25 1   
    37    21    22 ar  
    38    21    61 1   
    39    22    23 ar  
    40    22    26 1   
    41    23    24 ar  
    42    23    62 1   
    43    24    60 1   
    44    25    36 1   
    45    26    27 1   
    46    26    28 2   
    47    27    29 1   
    48    27    63 1   
    49    29    30 1   
    50    29    34 1   
    51    29    64 1   
    52    30    31 1   
    53    30    65 1   
    54    30    66 1   
    55    31    32 1   
    56    31    69 1   
    57    31    70 1   
    58    32    33 1   
    59    32    35 1   
    60    33    34 1   
    61    33    71 1   
    62    33    72 1   
    63    34    67 1   
    64    34    68 1   
    65    35    73 1   
    66    35    74 1   
    67    35    75 1   
    68    36    37 1   
    69    36    38 1   
    70    36    39 1   
    71    40    41 ar  
    72    40    45 ar  
    73    41    42 ar  
    74    41    48 1   
    75    42    43 ar  
    76    42    76 1   
    77    43    44 ar  
    78    43    79 1   
    79    44    45 ar  
    80    44    80 1   
    81    45    46 1   
    82    46    47 1   
    83    46    81 1   
    84    46    82 1   
    85    47    83 1   
    86    47    84 1   
    87    47    85 1   
    88    48    49 1   
    89    48    77 1   
    90    48    78 1   
    91    49    86 1   
    92    49    87 1   
    93    49    88 1   
@<TRIPOS>SUBSTRUCTURE
     1 SVE         1 TEMP              0 ****  ****    0 ROOT
