@<TRIPOS>MOLECULE
SVF
   35    36     1     0     0
SMALL
No Charge or Current Charge


@<TRIPOS>ATOM
      1 C01         -2.4940    -0.3170     1.4180 ca         1 SVF      -0.083000
      2 C02         -3.7260    -0.9290     1.1280 ca         1 SVF      -0.149000
      3 C03         -1.9990     0.7090     0.5880 ca         1 SVF      -0.093300
      4 C04         -4.4660    -0.5160     0.0090 ca         1 SVF       0.168000
      5 C05         -2.7490     1.1180    -0.5330 ca         1 SVF      -0.083000
      6 C06         -3.9820     0.5060    -0.8220 ca         1 SVF      -0.149000
      7 C08         -0.6600     1.3710     0.8940 c3         1 SVF      -0.025100
      8 C09          0.4850     0.9470    -0.0730 c6         1 SVF      -0.057700
      9 C10          0.7630    -0.5820    -0.0220 c6         1 SVF      -0.096400
     10 C11          1.7920     1.7360     0.2160 c6         1 SVF      -0.096400
     11 C12          1.9390    -0.9690    -0.9500 c6         1 SVF       0.098500
     12 C13          2.9360     1.2860    -0.7230 c6         1 SVF       0.098500
     13 N14          3.1550    -0.1820    -0.6150 n          1 SVF      -0.413800
     14 C15          4.2990    -0.7760    -0.0280 c          1 SVF       0.607100
     15 O16          4.3430    -1.9810     0.1880 o          1 SVF      -0.607100
     16 C17          5.5100     0.0980     0.3050 c3         1 SVF      -0.177100
     17 F07         -5.6490    -1.1050    -0.2690 f          1 SVF      -0.180000
     18 H1          -1.9230    -0.6440     2.2850 ha         1 SVF       0.115500
     19 H2          -4.1070    -1.7220     1.7660 ha         1 SVF       0.132500
     20 H3          -2.3770     1.9100    -1.1800 ha         1 SVF       0.115500
     21 H4          -4.5600     0.8210    -1.6860 ha         1 SVF       0.132500
     22 H5          -0.7870     2.4600     0.8500 hc         1 SVF       0.049200
     23 H6          -0.3640     1.1560     1.9290 hc         1 SVF       0.049200
     24 H7           0.1480     1.2040    -1.0870 hc         1 SVF       0.048700
     25 H8           0.9970    -0.8870     1.0080 hc         1 SVF       0.050450
     26 H9          -0.1320    -1.1450    -0.3200 hc         1 SVF       0.050450
     27 H10          1.6190     2.8140     0.0930 hc         1 SVF       0.050450
     28 H11          2.1000     1.5840     1.2610 hc         1 SVF       0.050450
     29 H12          2.1300    -2.0480    -0.8700 h1         1 SVF       0.054200
     30 H13          1.6610    -0.7680    -1.9940 h1         1 SVF       0.054200
     31 H14          2.6670     1.5280    -1.7620 h1         1 SVF       0.054200
     32 H15          3.8430     1.8590    -0.4910 h1         1 SVF       0.054200
     33 H16          5.2080     0.8690     1.0230 hc         1 SVF       0.059033
     34 H17          6.3550    -0.4850     0.6870 hc         1 SVF       0.059033
     35 H18          5.7910     0.6810    -0.5790 hc         1 SVF       0.059033
@<TRIPOS>BOND
     1     1     2 ar  
     2     1     3 ar  
     3     1    18 1   
     4     2     4 ar  
     5     2    19 1   
     6     3     5 ar  
     7     3     7 1   
     8     4     6 ar  
     9     4    17 1   
    10     5     6 ar  
    11     5    20 1   
    12     6    21 1   
    13     7     8 1   
    14     7    22 1   
    15     7    23 1   
    16     8     9 1   
    17     8    10 1   
    18     8    24 1   
    19     9    11 1   
    20     9    25 1   
    21     9    26 1   
    22    10    12 1   
    23    10    27 1   
    24    10    28 1   
    25    11    13 1   
    26    11    29 1   
    27    11    30 1   
    28    12    13 1   
    29    12    31 1   
    30    12    32 1   
    31    13    14 1   
    32    14    15 2   
    33    14    16 1   
    34    16    33 1   
    35    16    34 1   
    36    16    35 1   
@<TRIPOS>SUBSTRUCTURE
     1 SVF         1 TEMP              0 ****  ****    0 ROOT
