@<TRIPOS>MOLECULE
SVF
   35    36     1     0     0
SMALL
bcc


@<TRIPOS>ATOM
      1 C01         -2.4850    -0.3490     1.3430 ca         1 SVF      -0.101000
      2 C02         -3.7040    -0.9340     1.0230 ca         1 SVF      -0.167000
      3 C03         -1.9690     0.7090     0.6000 ca         1 SVF      -0.093300
      4 C04         -4.4070    -0.4410    -0.0590 ca         1 SVF       0.132900
      5 C05         -2.7130     1.1730    -0.4840 ca         1 SVF      -0.101000
      6 C06         -3.9330     0.6080    -0.8230 ca         1 SVF      -0.167000
      7 C08         -0.6370     1.3260     0.9220 c3         1 SVF      -0.025100
      8 C09          0.4780     0.8830    -0.0300 c6         1 SVF      -0.057700
      9 C10          0.7900    -0.6060     0.0930 c6         1 SVF      -0.096400
     10 C11          1.7500     1.6960     0.1980 c6         1 SVF      -0.096400
     11 C12          1.9480    -1.0090    -0.8110 c6         1 SVF       0.098500
     12 C13          2.8780     1.2300    -0.7140 c6         1 SVF       0.098500
     13 N14          3.1190    -0.1910    -0.5460 n          1 SVF      -0.480800
     14 C15          4.2630    -0.7360    -0.0800 c          1 SVF       0.674100
     15 O16          4.3870    -1.9420     0.1010 o          1 SVF      -0.607100
     16 C17          5.4140     0.2030     0.2070 c3         1 SVF      -0.177100
     17 F07         -5.5900    -0.9960    -0.3770 f          1 SVF      -0.144900
     18 H1          -1.9290    -0.7290     2.1910 ha         1 SVF       0.133500
     19 H2          -4.0990    -1.7550     1.6070 ha         1 SVF       0.150500
     20 H3          -2.3340     1.9980    -1.0770 ha         1 SVF       0.133500
     21 H4          -4.5050     0.9800    -1.6630 ha         1 SVF       0.150500
     22 H5          -0.7230     2.4160     0.8780 hc         1 SVF       0.049200
     23 H6          -0.3510     1.0800     1.9500 hc         1 SVF       0.049200
     24 H7           0.1420     1.0750    -1.0590 hc         1 SVF       0.048700
     25 H8           1.0440    -0.8420     1.1320 hc         1 SVF       0.050450
     26 H9          -0.0860    -1.2070    -0.1650 hc         1 SVF       0.050450
     27 H10          1.5600     2.7560     0.0110 hc         1 SVF       0.050450
     28 H11          2.0700     1.6050     1.2420 hc         1 SVF       0.050450
     29 H12          2.2010    -2.0560    -0.6740 h1         1 SVF       0.054200
     30 H13          1.6600    -0.8750    -1.8600 h1         1 SVF       0.054200
     31 H14          2.6040     1.4150    -1.7590 h1         1 SVF       0.054200
     32 H15          3.7810     1.8000    -0.5190 h1         1 SVF       0.054200
     33 H16          5.1620     0.9390     0.9720 hc         1 SVF       0.059033
     34 H17          6.2620    -0.3770     0.5590 hc         1 SVF       0.059033
     35 H18          5.7200     0.7520    -0.6840 hc         1 SVF       0.059033
@<TRIPOS>BOND
     1     1     2 ar  
     2     1     3 ar  
     3     1    18 1   
     4     2     4 ar  
     5     2    19 1   
     6     3     5 ar  
     7     3     7 1   
     8     4     6 ar  
     9     4    17 1   
    10     5     6 ar  
    11     5    20 1   
    12     6    21 1   
    13     7     8 1   
    14     7    22 1   
    15     7    23 1   
    16     8     9 1   
    17     8    10 1   
    18     8    24 1   
    19     9    11 1   
    20     9    25 1   
    21     9    26 1   
    22    10    12 1   
    23    10    27 1   
    24    10    28 1   
    25    11    13 1   
    26    11    29 1   
    27    11    30 1   
    28    12    13 1   
    29    12    31 1   
    30    12    32 1   
    31    13    14 1   
    32    14    15 2   
    33    14    16 1   
    34    16    33 1   
    35    16    34 1   
    36    16    35 1   
@<TRIPOS>SUBSTRUCTURE
     1 SVF         1 TEMP              0 ****  ****    0 ROOT
