@<TRIPOS>MOLECULE
SVG
   30    31     1     0     0
SMALL
No Charge or Current Charge


@<TRIPOS>ATOM
      1 N1          41.5690   134.0210    10.8990 nb         1 SVG      -0.670000
      2 C4          36.6340   131.1200    16.1530 ca         1 SVG      -0.073000
      3 C5          35.6320   130.1380    16.0530 ca         1 SVG      -0.112000
      4 C6          38.9380   132.0110    15.5720 ce         1 SVG       0.483900
      5 C7          39.1030   132.7930    16.8690 c3         1 SVG      -0.187400
      6 C8          40.8200   133.1400    14.5270 c3         1 SVG       0.165100
      7 C10         42.6090   132.3230    12.9090 ca         1 SVG      -0.081000
      8 C13         41.0100   133.9690    12.1340 ca         1 SVG       0.360900
      9 N           39.7150   132.1730    14.5420 n2         1 SVG      -0.602900
     10 C           35.8540   128.9800    15.2940 ca         1 SVG       0.131000
     11 C1          37.0740   128.8050    14.6240 ca         1 SVG      -0.112000
     12 C11         43.1890   132.3730    11.6310 ca         1 SVG      -0.165000
     13 C12         42.6410   133.2310    10.6610 ca         1 SVG       0.334900
     14 C2          38.0780   129.7850    14.7220 ca         1 SVG      -0.073000
     15 C3          37.8810   130.9450    15.5080 ca         1 SVG      -0.137900
     16 C9          41.4940   133.1420    13.1670 ca         1 SVG      -0.128300
     17 H1          36.4280   132.0210    16.7270 ha         1 SVG       0.127000
     18 H2          34.6790   130.2800    16.5580 ha         1 SVG       0.131500
     19 H3          38.4890   132.3870    17.6790 hc         1 SVG       0.053367
     20 H4          40.1400   132.7620    17.2240 hc         1 SVG       0.053367
     21 H5          38.8240   133.8440    16.7330 hc         1 SVG       0.053367
     22 H6          41.5670   132.8900    15.2930 h1         1 SVG       0.051200
     23 H7          40.4550   134.1540    14.7450 h1         1 SVG       0.051200
     24 H8          43.0130   131.6660    13.6770 ha         1 SVG       0.112000
     25 H9          40.1470   134.6130    12.3000 h4         1 SVG       0.037100
     26 H10         37.2410   127.9120    14.0270 ha         1 SVG       0.131500
     27 H11         44.0510   131.7590    11.3870 ha         1 SVG       0.122000
     28 H12         43.0740   133.2870     9.6630 h4         1 SVG       0.017100
     29 H13         39.0160   129.6330    14.1920 ha         1 SVG       0.127000
     30 Cl          34.5980   127.7560    15.1680 cl         1 SVG      -0.201000
@<TRIPOS>BOND
     1     1     8 ar  
     2     1    13 ar  
     3     2     3 ar  
     4     2    15 ar  
     5     2    17 1   
     6     3    10 ar  
     7     3    18 1   
     8     4     5 1   
     9     4     9 2   
    10     4    15 1   
    11     5    19 1   
    12     5    20 1   
    13     5    21 1   
    14     6     9 1   
    15     6    16 1   
    16     6    22 1   
    17     6    23 1   
    18     7    12 ar  
    19     7    16 ar  
    20     7    24 1   
    21     8    16 ar  
    22     8    25 1   
    23    10    11 ar  
    24    10    30 1   
    25    11    14 ar  
    26    11    26 1   
    27    12    13 ar  
    28    12    27 1   
    29    13    28 1   
    30    14    15 ar  
    31    14    29 1   
@<TRIPOS>SUBSTRUCTURE
     1 SVG         1 TEMP              0 ****  ****    0 ROOT
