@<TRIPOS>MOLECULE
SVG
   30    31     1     0     0
SMALL
bcc


@<TRIPOS>ATOM
      1 N1          41.5390   132.3430    10.8190 nb         1 SVG      -0.670000
      2 C4          36.7630   131.1100    16.3890 ca         1 SVG      -0.091000
      3 C5          35.6160   130.3380    16.2710 ca         1 SVG      -0.130000
      4 C6          39.0240   131.8450    15.5710 ce         1 SVG       0.483900
      5 C7          39.3370   132.5000    16.8870 c3         1 SVG      -0.187400
      6 C8          40.9050   132.7850    14.5240 c3         1 SVG       0.165100
      7 C10         42.7980   133.4560    13.0180 ca         1 SVG      -0.099000
      8 C13         40.9810   132.2960    12.0260 ca         1 SVG       0.426200
      9 N           39.7190   131.9730    14.5170 n2         1 SVG      -0.602900
     10 C           35.5190   129.4310    15.2300 ca         1 SVG       0.039400
     11 C1          36.5450   129.2920    14.3050 ca         1 SVG      -0.130000
     12 C11         43.3880   133.5110    11.7680 ca         1 SVG      -0.248300
     13 C12         42.7170   132.9380    10.6960 ca         1 SVG       0.400200
     14 C2          37.6750   130.0790    14.4300 ca         1 SVG      -0.091000
     15 C3          37.8070   130.9980    15.4730 ca         1 SVG      -0.137900
     16 C9          41.5620   132.8360    13.1680 ca         1 SVG      -0.193600
     17 H1          36.8160   131.8180    17.2060 ha         1 SVG       0.145000
     18 H2          34.8110   130.4470    16.9850 ha         1 SVG       0.149500
     19 H3          38.9050   131.9670    17.7300 hc         1 SVG       0.053367
     20 H4          40.4120   132.5630    17.0500 hc         1 SVG       0.053367
     21 H5          38.9490   133.5220    16.9040 hc         1 SVG       0.053367
     22 H6          41.6390   132.4120    15.2510 h1         1 SVG       0.051200
     23 H7          40.6820   133.8110    14.8410 h1         1 SVG       0.051200
     24 H8          43.2970   133.8930    13.8760 ha         1 SVG       0.130000
     25 H9          40.0210   131.7990    12.0970 h4         1 SVG       0.037100
     26 H10         36.4640   128.5770    13.4980 ha         1 SVG       0.149500
     27 H11         44.3490   133.9860    11.6210 ha         1 SVG       0.140000
     28 H12         43.1500   132.9630     9.7020 h4         1 SVG       0.017100
     29 H13         38.4750   129.9730    13.7090 ha         1 SVG       0.145000
     30 CL          34.0970   128.4530    15.0770 cl         1 SVG      -0.109400
@<TRIPOS>BOND
     1     1     8 ar  
     2     1    13 ar  
     3     2     3 ar  
     4     2    15 ar  
     5     2    17 1   
     6     3    10 ar  
     7     3    18 1   
     8     4     5 1   
     9     4     9 2   
    10     4    15 1   
    11     5    19 1   
    12     5    20 1   
    13     5    21 1   
    14     6     9 1   
    15     6    16 1   
    16     6    22 1   
    17     6    23 1   
    18     7    12 ar  
    19     7    16 ar  
    20     7    24 1   
    21     8    16 ar  
    22     8    25 1   
    23    10    11 ar  
    24    10    30 1   
    25    11    14 ar  
    26    11    26 1   
    27    12    13 ar  
    28    12    27 1   
    29    13    28 1   
    30    14    15 ar  
    31    14    29 1   
@<TRIPOS>SUBSTRUCTURE
     1 SVG         1 TEMP              0 ****  ****    0 ROOT
