@<TRIPOS>MOLECULE
SVH
   28    31     1     0     0
SMALL
No Charge or Current Charge


@<TRIPOS>ATOM
      1 C1          -0.0200    16.9760    29.9880 ca         1 SVH       0.211000
      2 C2           0.7400    18.1000    30.3500 ca         1 SVH      -0.187000
      3 C3           0.1530    19.0040    31.2360 ca         1 SVH      -0.005200
      4 C7          -4.0940    18.4220    32.5540 cc         1 SVH      -0.143000
      5 C8          -5.1990    16.4390    32.5110 cc         1 SVH      -0.256600
      6 C9          -4.0110    16.2860    31.9100 cd         1 SVH      -0.132300
      7 C10         -3.9210    14.8310    31.4990 c5         1 SVH       0.177300
      8 C11         -5.9850    15.2170    32.5700 c          1 SVH       0.608600
      9 C12         -1.2850    19.9350    32.6540 cc         1 SVH       0.363800
     10 F            0.4990    16.0690    29.1320 f          1 SVH      -0.183000
     11 N3           0.6690    20.1550    31.7870 na         1 SVH      -0.073400
     12 N2          -0.2180    20.7500    32.6880 nd         1 SVH      -0.515100
     13 C4          -1.1020    18.8270    31.7410 ca         1 SVH      -0.245900
     14 C5          -1.9050    17.7150    31.3980 ca         1 SVH       0.117000
     15 C           -1.3190    16.7830    30.5040 ca         1 SVH      -0.191000
     16 C6          -3.2810    17.5010    31.9100 cd         1 SVH      -0.095000
     17 N1          -5.2040    14.2640    31.9650 ns         1 SVH      -0.524900
     18 N           -5.2850    17.7640    32.9110 na         1 SVH      -0.057000
     19 H1           1.7440    18.2490    29.9600 ha         1 SVH       0.140000
     20 H2          -3.9580    19.4740    32.7630 h4         1 SVH       0.156000
     21 H3          -3.8120    14.7530    30.4090 h1         1 SVH       0.062700
     22 H4          -2.0930    20.1880    33.3240 h4         1 SVH       0.045800
     23 H5           1.5880    20.5540    31.5950 hn         1 SVH       0.379000
     24 H6          -1.8710    15.9110    30.1790 ha         1 SVH       0.131000
     25 H7          -6.0750    18.1880    33.3920 hn         1 SVH       0.368000
     26 H8          -3.0540    14.3580    31.9800 h1         1 SVH       0.062700
     27 H9          -5.5290    13.3090    31.8780 hn         1 SVH       0.336500
     28 O           -7.0920    15.0420    33.0510 o          1 SVH      -0.552000
@<TRIPOS>BOND
     1     1     2 ar  
     2     1    10 1   
     3     1    15 ar  
     4     2     3 ar  
     5     2    19 1   
     6     3    11 1   
     7     3    13 ar  
     8     4    16 2   
     9     4    18 1   
    10     4    20 1   
    11     5     6 2   
    12     5     8 1   
    13     5    18 1   
    14     6     7 1   
    15     6    16 1   
    16     7    17 1   
    17     7    21 1   
    18     7    26 1   
    19     8    17 1   
    20     8    28 2   
    21     9    12 2   
    22     9    13 1   
    23     9    22 1   
    24    11    12 1   
    25    11    23 1   
    26    13    14 ar  
    27    14    15 ar  
    28    14    16 1   
    29    15    24 1   
    30    17    27 1   
    31    18    25 1   
@<TRIPOS>SUBSTRUCTURE
     1 SVH         1 TEMP              0 ****  ****    0 ROOT
