@<TRIPOS>MOLECULE
SVH
   28    31     1     0     0
SMALL
abcg2


@<TRIPOS>ATOM
      1 C1          -0.0710    17.0800    29.9440 ca         1 SVH       0.211000
      2 C2           0.7350    18.1320    30.2990 ca         1 SVH      -0.187000
      3 C3           0.1760    18.9960    31.2500 ca         1 SVH      -0.005200
      4 C7          -4.1340    18.4110    32.4630 cc         1 SVH      -0.143000
      5 C8          -5.2030    16.4770    32.4820 cc         1 SVH      -0.256600
      6 C9          -3.9780    16.2440    31.9140 cd         1 SVH      -0.132300
      7 C10         -3.8690    14.7860    31.5910 c5         1 SVH       0.177300
      8 C11         -5.9900    15.2510    32.5910 c          1 SVH       0.608600
      9 C12         -1.2450    19.8810    32.7380 cc         1 SVH       0.363800
     10 F            0.3980    16.1890    29.0310 f          1 SVH      -0.183000
     11 N3           0.6910    20.0990    31.8490 na         1 SVH      -0.073400
     12 N2          -0.1640    20.6370    32.7530 nd         1 SVH      -0.515100
     13 C4          -1.1160    18.8120    31.8020 ca         1 SVH      -0.245900
     14 C5          -1.9160    17.7180    31.3860 ca         1 SVH       0.117000
     15 C           -1.3550    16.8550    30.4510 ca         1 SVH      -0.191000
     16 C6          -3.2610    17.4750    31.8980 cd         1 SVH      -0.095000
     17 N1          -5.1610    14.2900    32.0770 ns         1 SVH      -0.524900
     18 N           -5.3010    17.7970    32.8140 na         1 SVH      -0.057000
     19 H1           1.7220    18.2690    29.8800 ha         1 SVH       0.140000
     20 H2          -4.0160    19.4710    32.6080 h4         1 SVH       0.156000
     21 H3          -3.7600    14.5890    30.5210 h1         1 SVH       0.062700
     22 H4          -2.0630    20.1150    33.3980 h4         1 SVH       0.045800
     23 H5           1.5910    20.5240    31.6950 hn         1 SVH       0.379000
     24 H6          -1.9060    16.0040    30.0760 ha         1 SVH       0.131000
     25 H7          -6.0970    18.2560    33.2290 hn         1 SVH       0.368000
     26 H8          -3.0400    14.2960    32.1090 h1         1 SVH       0.062700
     27 H9          -5.4610    13.3360    31.9560 hn         1 SVH       0.336500
     28 O           -7.1250    15.0740    33.0340 o          1 SVH      -0.552000
@<TRIPOS>BOND
     1     1     2 ar  
     2     1    10 1   
     3     1    15 ar  
     4     2     3 ar  
     5     2    19 1   
     6     3    11 1   
     7     3    13 ar  
     8     4    16 2   
     9     4    18 1   
    10     4    20 1   
    11     5     6 2   
    12     5     8 1   
    13     5    18 1   
    14     6     7 1   
    15     6    16 1   
    16     7    17 1   
    17     7    21 1   
    18     7    26 1   
    19     8    17 1   
    20     8    28 2   
    21     9    12 2   
    22     9    13 1   
    23     9    22 1   
    24    11    12 1   
    25    11    23 1   
    26    13    14 ar  
    27    14    15 ar  
    28    14    16 1   
    29    15    24 1   
    30    17    27 1   
    31    18    25 1   
@<TRIPOS>SUBSTRUCTURE
     1 SVH         1 TEMP              0 ****  ****    0 ROOT
