@<TRIPOS>MOLECULE
SVI
   13    14     1     0     0
SMALL
abcg2


@<TRIPOS>ATOM
      1 N1          -7.3420    -3.6510    -8.8650 nc         1 SVI      -0.068000
      2 N3          -8.5280    -5.0030    -7.5700 na         1 SVI       0.016200
      3 C4          -9.5850    -5.3510    -6.7660 cd         1 SVI      -0.135000
      4 N           -6.7060    -4.8550    -8.7720 nc         1 SVI      -0.352700
      5 C           -7.4120    -5.6550    -8.0020 cd         1 SVI       0.330700
      6 C1          -8.4450    -3.7410    -8.1370 cd         1 SVI      -0.170000
      7 C2          -9.4900    -2.8250    -7.8570 cd         1 SVI       0.402900
      8 C3         -10.5380    -4.4100    -6.5530 cc         1 SVI       0.284900
      9 N2         -10.4970    -3.1480    -7.0930 nc         1 SVI      -0.642000
     10 H1          -9.5950    -6.3470    -6.3500 h4         1 SVI       0.156000
     11 H2          -7.1710    -6.6710    -7.7370 h5         1 SVI       0.081800
     12 H3          -9.4500    -1.8310    -8.2880 h4         1 SVI       0.054100
     13 H4         -11.3880    -4.6410    -5.9260 h4         1 SVI       0.040100
@<TRIPOS>BOND
     1     1     4 1   
     2     1     6 2   
     3     2     3 1   
     4     2     5 1   
     5     2     6 1   
     6     3     8 2   
     7     3    10 1   
     8     4     5 2   
     9     5    11 1   
    10     6     7 1   
    11     7     9 2   
    12     7    12 1   
    13     8     9 1   
    14     8    13 1   
@<TRIPOS>SUBSTRUCTURE
     1 SVI         1 TEMP              0 ****  ****    0 ROOT
