@<TRIPOS>MOLECULE
SVI
   13    14     1     0     0
SMALL
No Charge or Current Charge


@<TRIPOS>ATOM
      1 N1          -7.3580    -3.6380    -8.8600 nc         1 SVI      -0.068000
      2 N3          -8.5060    -4.9640    -7.5990 na         1 SVI       0.016200
      3 C4          -9.5440    -5.3810    -6.7780 cd         1 SVI      -0.135000
      4 N           -6.6980    -4.8760    -8.7670 nc         1 SVI      -0.352700
      5 C           -7.4190    -5.6870    -7.9850 cd         1 SVI       0.330700
      6 C1          -8.4550    -3.7410    -8.1310 cd         1 SVI      -0.170000
      7 C2          -9.4830    -2.7940    -7.8740 cd         1 SVI       0.402900
      8 C3         -10.5290    -4.4150    -6.5560 cc         1 SVI       0.284900
      9 N2         -10.5180    -3.1220    -7.0920 nc         1 SVI      -0.642000
     10 H1          -9.5360    -6.3850    -6.3730 h4         1 SVI       0.156000
     11 H2          -7.2210    -6.7100    -7.6900 h5         1 SVI       0.081800
     12 H3          -9.4930    -1.7890    -8.2780 h4         1 SVI       0.054100
     13 H4         -11.3880    -4.6250    -5.9320 h4         1 SVI       0.040100
@<TRIPOS>BOND
     1     1     4 1   
     2     1     6 2   
     3     2     3 1   
     4     2     5 1   
     5     2     6 1   
     6     3     8 2   
     7     3    10 1   
     8     4     5 2   
     9     5    11 1   
    10     6     7 1   
    11     7     9 2   
    12     7    12 1   
    13     8     9 1   
    14     8    13 1   
@<TRIPOS>SUBSTRUCTURE
     1 SVI         1 TEMP              0 ****  ****    0 ROOT
