@<TRIPOS>MOLECULE
SVJ
   26    27     1     0     0
SMALL
abcg2


@<TRIPOS>ATOM
      1 N1          30.9330   112.6890    23.5770 n8         1 SVJ      -1.000200
      2 C4          27.8700   112.5950    24.6920 c5         1 SVJ       0.162500
      3 C5          28.9080   111.5290    24.3510 c6         1 SVJ      -0.056400
      4 C6          29.7890   111.8890    23.1460 c6         1 SVJ       0.169500
      5 C7          28.9820   112.6450    22.0810 c6         1 SVJ      -0.056400
      6 N           27.0410   112.8000    23.5030 n3         1 SVJ      -0.697600
      7 C           25.7910   113.4730    23.7880 c3         1 SVJ       0.147100
      8 C1          27.9370   113.5950    22.6620 c5         1 SVJ       0.162500
      9 C2          28.5390   114.6580    23.6100 c5         1 SVJ      -0.095900
     10 C3          28.4940   113.9770    24.9910 c5         1 SVJ      -0.095900
     11 H1          31.4870   112.1490    24.2320 hn         1 SVJ       0.389000
     12 H2          31.5380   112.8570    22.7820 hn         1 SVJ       0.389000
     13 H4          27.2540   112.2330    25.5200 h1         1 SVJ       0.056700
     14 H5          28.3730   110.6010    24.1320 hc         1 SVJ       0.043700
     15 H6          29.5390   111.3250    25.2210 hc         1 SVJ       0.043700
     16 H7          30.1200   110.9450    22.6910 h1         1 SVJ       0.011700
     17 H8          28.4570   111.9180    21.4560 hc         1 SVJ       0.043700
     18 H9          29.6640   113.1870    21.4190 hc         1 SVJ       0.043700
     19 H11         25.1830   112.8520    24.4490 h1         1 SVJ       0.029367
     20 H12         25.8900   114.4600    24.2610 h1         1 SVJ       0.029367
     21 H13         25.2310   113.6120    22.8610 h1         1 SVJ       0.029367
     22 H14         27.3760   114.0470    21.8400 h1         1 SVJ       0.056700
     23 H15         29.5500   114.9360    23.3170 hc         1 SVJ       0.048450
     24 H16         27.9310   115.5650    23.5990 hc         1 SVJ       0.048450
     25 H17         29.4820   113.8890    25.4400 hc         1 SVJ       0.048450
     26 H18         27.8650   114.5350    25.6860 hc         1 SVJ       0.048450
@<TRIPOS>BOND
     1     1     4 1   
     2     1    11 1   
     3     1    12 1   
     4     2     3 1   
     5     2     6 1   
     6     2    10 1   
     7     2    13 1   
     8     3     4 1   
     9     3    14 1   
    10     3    15 1   
    11     4     5 1   
    12     4    16 1   
    13     5     8 1   
    14     5    17 1   
    15     5    18 1   
    16     6     7 1   
    17     6     8 1   
    18     7    19 1   
    19     7    20 1   
    20     7    21 1   
    21     8     9 1   
    22     8    22 1   
    23     9    10 1   
    24     9    23 1   
    25     9    24 1   
    26    10    25 1   
    27    10    26 1   
@<TRIPOS>SUBSTRUCTURE
     1 SVJ         1 TEMP              0 ****  ****    0 ROOT
