@<TRIPOS>MOLECULE
SVJ
   26    27     1     0     0
SMALL
No Charge or Current Charge


@<TRIPOS>ATOM
      1 N1          31.0320   112.6320    23.5530 n8         1 SVJ      -1.000200
      2 C4          27.8750   112.5930    24.7230 c5         1 SVJ       0.162500
      3 C5          28.9250   111.4990    24.3510 c6         1 SVJ      -0.056400
      4 C6          29.8230   111.8790    23.1430 c6         1 SVJ       0.169500
      5 C7          29.0020   112.6260    22.0580 c6         1 SVJ      -0.056400
      6 N           27.0270   112.8480    23.5260 n3         1 SVJ      -0.697600
      7 C           25.7180   113.4940    23.7990 c3         1 SVJ       0.147100
      8 C1          27.9440   113.6160    22.6400 c5         1 SVJ       0.162500
      9 C2          28.4990   114.7060    23.6140 c5         1 SVJ      -0.095900
     10 C3          28.4520   114.0140    25.0210 c5         1 SVJ      -0.095900
     11 H1          31.5890   112.0400    24.1790 hn         1 SVJ       0.389000
     12 H2          31.6370   112.7500    22.7340 hn         1 SVJ       0.389000
     13 H4          27.2860   112.2160    25.5730 h1         1 SVJ       0.056700
     14 H5          28.3870   110.5720    24.1120 hc         1 SVJ       0.043700
     15 H6          29.5430   111.2640    25.2290 hc         1 SVJ       0.043700
     16 H7          30.2090   110.9500    22.6990 h1         1 SVJ       0.011700
     17 H8          28.4760   111.8840    21.4420 hc         1 SVJ       0.043700
     18 H9          29.6720   113.1600    21.3710 hc         1 SVJ       0.043700
     19 H11         25.1100   112.8590    24.4560 h1         1 SVJ       0.029367
     20 H12         25.8330   114.4720    24.2840 h1         1 SVJ       0.029367
     21 H13         25.1630   113.6410    22.8640 h1         1 SVJ       0.029367
     22 H14         27.4130   114.0740    21.7930 h1         1 SVJ       0.056700
     23 H15         29.5080   115.0320    23.3380 hc         1 SVJ       0.048450
     24 H16         27.8690   115.6020    23.6000 hc         1 SVJ       0.048450
     25 H17         29.4350   113.9690    25.5020 hc         1 SVJ       0.048450
     26 H18         27.7980   114.5680    25.7040 hc         1 SVJ       0.048450
@<TRIPOS>BOND
     1     1     4 1   
     2     1    11 1   
     3     1    12 1   
     4     2     3 1   
     5     2     6 1   
     6     2    10 1   
     7     2    13 1   
     8     3     4 1   
     9     3    14 1   
    10     3    15 1   
    11     4     5 1   
    12     4    16 1   
    13     5     8 1   
    14     5    17 1   
    15     5    18 1   
    16     6     7 1   
    17     6     8 1   
    18     7    19 1   
    19     7    20 1   
    20     7    21 1   
    21     8     9 1   
    22     8    22 1   
    23     9    10 1   
    24     9    23 1   
    25     9    24 1   
    26    10    25 1   
    27    10    26 1   
@<TRIPOS>SUBSTRUCTURE
     1 SVJ         1 TEMP              0 ****  ****    0 ROOT
