@<TRIPOS>MOLECULE
SVK
   28    30     1     0     0
SMALL
No Charge or Current Charge


@<TRIPOS>ATOM
      1 C1         192.8260   -31.2020    77.8320 ca         1 SVK      -0.112000
      2 C2         193.9070   -31.3120    78.7230 ca         1 SVK      -0.106500
      3 C3         193.7120   -31.1180    80.1050 ca         1 SVK      -0.082300
      4 C7         195.6050   -29.9190    81.2910 cc         1 SVK      -0.135400
      5 C8         195.3230   -28.6800    80.7310 cd         1 SVK      -0.140100
      6 C9         197.1100   -28.3790    82.0730 ca         1 SVK       0.370500
      7 C10        196.7430   -29.7040    82.1390 ca         1 SVK      -0.136800
      8 C11        197.4390   -30.6180    82.9400 ca         1 SVK      -0.028000
      9 C12        198.5260   -30.1030    83.6670 ca         1 SVK      -0.198000
     10 C13        198.8450   -28.7330    83.5510 ca         1 SVK       0.355900
     11 N1         198.1490   -27.8720    82.7640 nb         1 SVK      -0.684000
     12 N          196.2530   -27.7260    81.2140 na         1 SVK      -0.328400
     13 C6         194.8860   -31.2270    81.0710 c3         1 SVK       0.044100
     14 C4         192.4230   -30.8080    80.5840 ca         1 SVK      -0.106500
     15 C5         191.3420   -30.6980    79.6920 ca         1 SVK      -0.112000
     16 C          191.5430   -30.8960    78.3160 ca         1 SVK      -0.112000
     17 H1         192.9830   -31.3530    76.7660 ha         1 SVK       0.112000
     18 H2         194.8990   -31.5450    78.3400 ha         1 SVK       0.114000
     19 H3         194.5340   -28.4120    80.0310 h4         1 SVK       0.222000
     20 H4         197.1560   -31.6670    82.9970 ha         1 SVK       0.118000
     21 H5         199.1180   -30.7460    84.3110 ha         1 SVK       0.121000
     22 H6         199.6840   -28.3120    84.1050 h4         1 SVK       0.017100
     23 H7         196.2960   -26.7410    80.9830 hn         1 SVK       0.361000
     24 H8         194.5360   -31.6100    82.0380 hc         1 SVK       0.053700
     25 H9         195.6020   -31.9720    80.7020 hc         1 SVK       0.053700
     26 H10        192.2610   -30.6490    81.6480 ha         1 SVK       0.114000
     27 H11        190.3500   -30.4590    80.0680 ha         1 SVK       0.112000
     28 H12        190.7070   -30.8100    77.6250 ha         1 SVK       0.112000
@<TRIPOS>BOND
     1     1     2 ar  
     2     1    16 ar  
     3     1    17 1   
     4     2     3 ar  
     5     2    18 1   
     6     3    13 1   
     7     3    14 ar  
     8     4     5 2   
     9     4     7 1   
    10     4    13 1   
    11     5    12 1   
    12     5    19 1   
    13     6     7 ar  
    14     6    11 ar  
    15     6    12 1   
    16     7     8 ar  
    17     8     9 ar  
    18     8    20 1   
    19     9    10 ar  
    20     9    21 1   
    21    10    11 ar  
    22    10    22 1   
    23    12    23 1   
    24    13    24 1   
    25    13    25 1   
    26    14    15 ar  
    27    14    26 1   
    28    15    16 ar  
    29    15    27 1   
    30    16    28 1   
@<TRIPOS>SUBSTRUCTURE
     1 SVK         1 TEMP              0 ****  ****    0 ROOT
