@<TRIPOS>MOLECULE
SVK
   28    30     1     0     0
SMALL
bcc


@<TRIPOS>ATOM
      1 C1         192.7970   -31.0890    77.8530 ca         1 SVK      -0.130000
      2 C2         193.8780   -31.2730    78.7050 ca         1 SVK      -0.124500
      3 C3         193.7280   -31.1520    80.0840 ca         1 SVK      -0.082300
      4 C7         195.6230   -30.0160    81.2490 cc         1 SVK      -0.135400
      5 C8         195.3810   -28.7990    80.6780 cd         1 SVK      -0.090100
      6 C9         197.0930   -28.4520    82.0530 ca         1 SVK       0.435800
      7 C10        196.7250   -29.8160    82.1420 ca         1 SVK      -0.202100
      8 C11        197.4570   -30.6120    83.0190 ca         1 SVK      -0.046000
      9 C12        198.4820   -30.0080    83.7280 ca         1 SVK      -0.281300
     10 C13        198.7460   -28.6460    83.5460 ca         1 SVK       0.421200
     11 N1         198.0690   -27.8580    82.7210 nb         1 SVK      -0.684000
     12 N          196.2600   -27.8620    81.1570 na         1 SVK      -0.278100
     13 C6         194.9090   -31.3090    81.0020 c3         1 SVK       0.044100
     14 C4         192.4700   -30.8400    80.5930 ca         1 SVK      -0.124500
     15 C5         191.3850   -30.6570    79.7460 ca         1 SVK      -0.130000
     16 C          191.5460   -30.7800    78.3720 ca         1 SVK      -0.130000
     17 H1         192.9310   -31.1890    76.7840 ha         1 SVK       0.130000
     18 H2         194.8510   -31.5170    78.2930 ha         1 SVK       0.132000
     19 H3         194.6330   -28.5220    79.9520 h4         1 SVK       0.172000
     20 H4         197.2360   -31.6640    83.1490 ha         1 SVK       0.136000
     21 H5         199.0820   -30.5760    84.4250 ha         1 SVK       0.139000
     22 H6         199.5500   -28.1780    84.1030 h4         1 SVK       0.017100
     23 H7         196.2820   -26.8920    80.8880 hn         1 SVK       0.310700
     24 H8         194.5800   -31.7310    81.9560 hc         1 SVK       0.053700
     25 H9         195.6090   -32.0360    80.5770 hc         1 SVK       0.053700
     26 H10        192.3380   -30.7410    81.6650 ha         1 SVK       0.132000
     27 H11        190.4140   -30.4180    80.1590 ha         1 SVK       0.130000
     28 H12        190.7020   -30.6380    77.7090 ha         1 SVK       0.130000
@<TRIPOS>BOND
     1     1     2 ar  
     2     1    16 ar  
     3     1    17 1   
     4     2     3 ar  
     5     2    18 1   
     6     3    13 1   
     7     3    14 ar  
     8     4     5 2   
     9     4     7 1   
    10     4    13 1   
    11     5    12 1   
    12     5    19 1   
    13     6     7 ar  
    14     6    11 ar  
    15     6    12 1   
    16     7     8 ar  
    17     8     9 ar  
    18     8    20 1   
    19     9    10 ar  
    20     9    21 1   
    21    10    11 ar  
    22    10    22 1   
    23    12    23 1   
    24    13    24 1   
    25    13    25 1   
    26    14    15 ar  
    27    14    26 1   
    28    15    16 ar  
    29    15    27 1   
    30    16    28 1   
@<TRIPOS>SUBSTRUCTURE
     1 SVK         1 TEMP              0 ****  ****    0 ROOT
