@<TRIPOS>MOLECULE
SVL
   46    47     1     0     0
SMALL
abcg2


@<TRIPOS>ATOM
      1 C1         -20.6030    -2.3150    10.9240 c6         1 SVL       0.088000
      2 C4         -20.1540    -0.4650    12.7230 c6         1 SVL       0.160800
      3 C5         -18.8740    -0.9950    12.0900 c6         1 SVL       0.110000
      4 C11        -21.4400    -0.6100    15.4700 ca         1 SVL      -0.080300
      5 C14        -20.5030     0.3740    17.9280 ca         1 SVL      -0.102000
      6 C16        -22.0390     0.4960    16.0690 ca         1 SVL      -0.110000
      7 C21        -22.5570    -4.8530    12.2300 c3         1 SVL      -0.062700
      8 C22        -22.6110    -5.0020    10.7070 c3         1 SVL      -0.090600
      9 C12        -20.3600    -1.2230    16.1070 ca         1 SVL      -0.083000
     10 C13        -19.9090    -0.7230    17.3170 ca         1 SVL       0.120000
     11 C15        -21.5770     0.9810    17.2880 ca         1 SVL      -0.103000
     12 C2         -21.4370    -2.4870    12.2020 c6         1 SVL       0.176500
     13 C23        -23.9200    -4.4280    12.7830 c3         1 SVL      -0.090600
     14 C9         -16.8270    -2.7320    11.1630 c3         1 SVL      -0.173100
     15 N3         -20.9220    -1.5810    13.2520 n3         1 SVL      -0.742600
     16 N6         -19.1920    -2.1470    11.2400 n          1 SVL      -0.408800
     17 O10        -18.5470    -3.9620    10.0380 o          1 SVL      -0.620100
     18 CL24       -18.5440    -1.5010    18.1030 cl         1 SVL      -0.217000
     19 H1         -20.9480    -1.4420    10.3640 h1         1 SVL       0.065200
     20 H2         -20.7040    -3.1810    10.2830 h1         1 SVL       0.065200
     21 H3         -19.8770     0.1970    13.5440 h1         1 SVL       0.042700
     22 H4         -20.7310     0.1420    12.0080 h1         1 SVL       0.042700
     23 H5         -18.1940    -1.3070    12.8820 h1         1 SVL       0.046700
     24 H6         -18.3870    -0.2060    11.5080 h1         1 SVL       0.046700
     25 H7         -22.6450    -0.4250    13.7090 h1         1 SVL       0.043200
     26 H8         -22.5840    -2.0420    14.3930 h1         1 SVL       0.043200
     27 H9         -20.1300     0.7460    18.8720 ha         1 SVL       0.130000
     28 H10        -22.8700     0.9840    15.5740 ha         1 SVL       0.114000
     29 H11        -21.4820    -3.8990    13.8160 hc         1 SVL       0.054200
     30 H12        -20.4570    -4.3780    12.4850 hc         1 SVL       0.054200
     31 H13        -22.3360    -5.8440    12.6430 hc         1 SVL       0.048700
     32 H14        -23.3550    -5.7500    10.4250 hc         1 SVL       0.033367
     33 H15        -22.8930    -4.0630    10.2240 hc         1 SVL       0.033367
     34 H16        -21.6470    -5.3150    10.3010 hc         1 SVL       0.033367
     35 H17        -19.8750    -2.0720    15.6480 ha         1 SVL       0.145000
     36 H18        -22.0500     1.8420    17.7440 ha         1 SVL       0.118000
     37 H19        -22.4630    -2.1960    11.9390 h1         1 SVL       0.034700
     38 H20        -23.8980    -4.3630    13.8740 hc         1 SVL       0.033367
     39 H21        -24.2230    -3.4520    12.3960 hc         1 SVL       0.033367
     40 H22        -24.6920    -5.1470    12.5010 hc         1 SVL       0.033367
     41 H23        -16.1830    -3.4350    10.6410 hc         1 SVL       0.060700
     42 H24        -16.5280    -1.7120    10.9170 hc         1 SVL       0.060700
     43 H25        -16.6980    -2.8600    12.2400 hc         1 SVL       0.060700
     44 C7         -18.2600    -3.0010    10.7640 c          1 SVL       0.603100
     45 C8         -21.9710    -1.1650    14.1700 c3         1 SVL       0.218100
     46 C20        -21.4280    -3.9330    12.7260 c3         1 SVL      -0.070400
@<TRIPOS>BOND
     1     1    12 1   
     2     1    16 1   
     3     1    19 1   
     4     1    20 1   
     5     2     3 1   
     6     2    15 1   
     7     2    21 1   
     8     2    22 1   
     9     3    16 1   
    10     3    23 1   
    11     3    24 1   
    12     4     6 ar  
    13     4     9 ar  
    14     4    45 1   
    15     5    10 ar  
    16     5    11 ar  
    17     5    27 1   
    18     6    11 ar  
    19     6    28 1   
    20     7     8 1   
    21     7    13 1   
    22     7    31 1   
    23     7    46 1   
    24     8    32 1   
    25     8    33 1   
    26     8    34 1   
    27     9    10 ar  
    28     9    35 1   
    29    10    18 1   
    30    11    36 1   
    31    12    15 1   
    32    12    37 1   
    33    12    46 1   
    34    13    38 1   
    35    13    39 1   
    36    13    40 1   
    37    14    41 1   
    38    14    42 1   
    39    14    43 1   
    40    14    44 1   
    41    15    45 1   
    42    16    44 1   
    43    17    44 2   
    44    25    45 1   
    45    26    45 1   
    46    29    46 1   
    47    30    46 1   
@<TRIPOS>SUBSTRUCTURE
     1 SVL         1 TEMP              0 ****  ****    0 ROOT
