@<TRIPOS>MOLECULE
SVL
   46    47     1     0     0
SMALL
No Charge or Current Charge


@<TRIPOS>ATOM
      1 C1         -20.4170    -2.6860    11.0370 c6         1 SVL       0.088000
      2 C4         -20.1200    -0.6090    12.8760 c6         1 SVL       0.160800
      3 C5         -18.8220    -1.0890    12.1790 c6         1 SVL       0.110000
      4 C11        -21.4540    -0.6880    15.6060 ca         1 SVL      -0.080300
      5 C14        -20.4820     0.5400    17.9520 ca         1 SVL      -0.102000
      6 C16        -21.8700     0.6130    15.9520 ca         1 SVL      -0.110000
      7 C21        -22.8390    -4.8820    12.2410 c3         1 SVL      -0.062700
      8 C22        -22.7530    -5.1060    10.7140 c3         1 SVL      -0.090600
      9 C12        -20.5480    -1.3690    16.4430 ca         1 SVL      -0.083000
     10 C13        -20.0650    -0.7560    17.6100 ca         1 SVL       0.120000
     11 C15        -21.3860     1.2260    17.1210 ca         1 SVL      -0.103000
     12 C2         -21.3530    -2.6650    12.3040 c6         1 SVL       0.176500
     13 C23        -24.1880    -4.2370    12.6410 c3         1 SVL      -0.090600
     14 C9         -16.5310    -2.2400    10.7120 c3         1 SVL      -0.173100
     15 N3         -20.8830    -1.7660    13.4080 n3         1 SVL      -0.742600
     16 N6         -19.0060    -2.2420    11.2490 n          1 SVL      -0.408800
     17 O10        -18.1770    -3.5010     9.5160 o          1 SVL      -0.620100
     18 Cl24       -18.9310    -1.6140    18.6470 cl         1 SVL      -0.217000
     19 H1         -20.8590    -2.0180    10.2840 h1         1 SVL       0.065200
     20 H2         -20.4250    -3.6890    10.5920 h1         1 SVL       0.065200
     21 H3         -19.8380     0.0880    13.6780 h1         1 SVL       0.042700
     22 H4         -20.7330    -0.0440    12.1580 h1         1 SVL       0.042700
     23 H5         -18.1080    -1.3870    12.9600 h1         1 SVL       0.046700
     24 H6         -18.3810    -0.2420    11.6350 h1         1 SVL       0.046700
     25 H7         -22.6640    -0.6790    13.8230 h1         1 SVL       0.043200
     26 H8         -22.5640    -2.2290    14.6470 h1         1 SVL       0.043200
     27 H9         -20.1060     1.0120    18.8560 ha         1 SVL       0.130000
     28 H10        -22.5680     1.1520    15.3140 ha         1 SVL       0.114000
     29 H11        -21.7400    -4.1130    13.9220 hc         1 SVL       0.054200
     30 H12        -20.7170    -4.7280    12.6750 hc         1 SVL       0.054200
     31 H13        -22.8280    -5.8790    12.7000 hc         1 SVL       0.048700
     32 H14        -23.5790    -5.7420    10.3730 hc         1 SVL       0.033367
     33 H15        -22.8130    -4.1560    10.1690 hc         1 SVL       0.033367
     34 H16        -21.8140    -5.6050    10.4470 hc         1 SVL       0.033367
     35 H17        -20.2160    -2.3710    16.1830 ha         1 SVL       0.145000
     36 H18        -21.7100     2.2310    17.3830 ha         1 SVL       0.118000
     37 H19        -22.3180    -2.2760    11.9490 h1         1 SVL       0.034700
     38 H20        -24.2490    -4.1080    13.7290 hc         1 SVL       0.033367
     39 H21        -24.3200    -3.2560    12.1710 hc         1 SVL       0.033367
     40 H22        -25.0250    -4.8740    12.3310 hc         1 SVL       0.033367
     41 H23        -15.7910    -2.7320    10.0700 hc         1 SVL       0.060700
     42 H24        -16.4800    -1.1520    10.6050 hc         1 SVL       0.060700
     43 H25        -16.3060    -2.3900    11.7730 hc         1 SVL       0.060700
     44 C7         -17.9600    -2.7090    10.4240 c          1 SVL       0.603100
     45 C8         -21.9710    -1.3590    14.3370 c3         1 SVL       0.218100
     46 C20        -21.6170    -4.1200    12.8330 c3         1 SVL      -0.070400
@<TRIPOS>BOND
     1     1    12 1   
     2     1    16 1   
     3     1    19 1   
     4     1    20 1   
     5     2     3 1   
     6     2    15 1   
     7     2    21 1   
     8     2    22 1   
     9     3    16 1   
    10     3    23 1   
    11     3    24 1   
    12     4     6 ar  
    13     4     9 ar  
    14     4    45 1   
    15     5    10 ar  
    16     5    11 ar  
    17     5    27 1   
    18     6    11 ar  
    19     6    28 1   
    20     7     8 1   
    21     7    13 1   
    22     7    31 1   
    23     7    46 1   
    24     8    32 1   
    25     8    33 1   
    26     8    34 1   
    27     9    10 ar  
    28     9    35 1   
    29    10    18 1   
    30    11    36 1   
    31    12    15 1   
    32    12    37 1   
    33    12    46 1   
    34    13    38 1   
    35    13    39 1   
    36    13    40 1   
    37    14    41 1   
    38    14    42 1   
    39    14    43 1   
    40    14    44 1   
    41    15    45 1   
    42    16    44 1   
    43    17    44 2   
    44    25    45 1   
    45    26    45 1   
    46    29    46 1   
    47    30    46 1   
@<TRIPOS>SUBSTRUCTURE
     1 SVL         1 TEMP              0 ****  ****    0 ROOT
