@<TRIPOS>MOLECULE
SVM
   40    42     1     0     0
SMALL
No Charge or Current Charge


@<TRIPOS>ATOM
      1 N1          51.4770   120.2410    31.6090 nb         1 SVM      -0.655000
      2 C4          51.5800   117.8220    31.6410 ca         1 SVM      -0.164000
      3 C5          52.9480   117.8440    31.3270 ca         1 SVM      -0.073000
      4 C6          53.5640   119.0940    31.1580 ca         1 SVM      -0.167000
      5 C7          52.7960   120.2620    31.3070 ca         1 SVM       0.341900
      6 C8          43.9450   120.3950    31.9470 c5         1 SVM       0.116700
      7 C10         41.6200   119.6710    31.6880 c5         1 SVM      -0.076700
      8 C13         43.3030   120.6830    30.5450 c5         1 SVM      -0.084700
      9 N           47.1050   118.8020    31.1690 ns         1 SVM      -0.457900
     10 C           46.2620   119.8510    31.3950 cs         1 SVM       0.474400
     11 C1          48.5310   118.8820    30.8440 c3         1 SVM       0.114000
     12 C11         41.1500   121.1610    31.6030 c5         1 SVM      -0.081400
     13 C12         42.2880   121.8470    30.7790 c5         1 SVM      -0.075400
     14 C14         42.3420   119.4860    30.3360 c5         1 SVM      -0.087400
     15 C3          50.8820   119.0380    31.7740 ca         1 SVM       0.351300
     16 C9          42.8120   119.6180    32.7010 c5         1 SVM      -0.090400
     17 N2          45.0050   119.4040    31.7020 ns         1 SVM      -0.449900
     18 S           46.7290   121.4560    31.2890 s          1 SVM      -0.676400
     19 H1          51.0630   116.8750    31.7780 ha         1 SVM       0.118000
     20 H2          53.5140   116.9210    31.2180 ha         1 SVM       0.117000
     21 H3          54.6210   119.1660    30.9150 ha         1 SVM       0.123000
     22 H4          53.2500   121.2450    31.1810 h4         1 SVM       0.021100
     23 H5          44.2800   121.2950    32.4820 h1         1 SVM       0.098700
     24 H6          40.8180   118.9530    31.8950 hc         1 SVM       0.066700
     25 H7          44.0170   120.8670    29.7340 hc         1 SVM       0.093700
     26 H8          46.7060   117.8750    31.2510 hn         1 SVM       0.294500
     27 H9          48.8200   117.9590    30.3240 h1         1 SVM       0.073200
     28 H10         48.7050   119.7200    30.1560 h1         1 SVM       0.073200
     29 H11         41.0120   121.6160    32.5900 hc         1 SVM       0.044700
     30 H12         40.1890   121.2420    31.0800 hc         1 SVM       0.044700
     31 H13         42.7360   122.6970    31.3080 hc         1 SVM       0.052200
     32 H14         41.9050   122.2330    29.8280 hc         1 SVM       0.052200
     33 H15         41.6800   119.6050    29.4700 hc         1 SVM       0.047700
     34 H16         42.8520   118.5190    30.2430 hc         1 SVM       0.047700
     35 H17         49.1300   119.9870    32.6090 hc         1 SVM       0.068200
     36 H18         49.1740   118.2440    32.8090 hc         1 SVM       0.068200
     37 H19         43.0830   118.5800    32.9330 hc         1 SVM       0.047700
     38 H20         42.5620   120.0910    33.6570 hc         1 SVM       0.047700
     39 H21         44.8450   118.4060    31.7290 hn         1 SVM       0.296500
     40 C2          49.4010   119.0520    32.1040 c3         1 SVM      -0.156700
@<TRIPOS>BOND
     1     1     5 ar  
     2     1    15 ar  
     3     2     3 ar  
     4     2    15 ar  
     5     2    19 1   
     6     3     4 ar  
     7     3    20 1   
     8     4     5 ar  
     9     4    21 1   
    10     5    22 1   
    11     6     8 1   
    12     6    16 1   
    13     6    17 1   
    14     6    23 1   
    15     7    12 1   
    16     7    14 1   
    17     7    16 1   
    18     7    24 1   
    19     8    13 1   
    20     8    14 1   
    21     8    25 1   
    22     9    10 1   
    23     9    11 1   
    24     9    26 1   
    25    10    17 1   
    26    10    18 2   
    27    11    27 1   
    28    11    28 1   
    29    11    40 1   
    30    12    13 1   
    31    12    29 1   
    32    12    30 1   
    33    13    31 1   
    34    13    32 1   
    35    14    33 1   
    36    14    34 1   
    37    15    40 1   
    38    16    37 1   
    39    16    38 1   
    40    17    39 1   
    41    35    40 1   
    42    36    40 1   
@<TRIPOS>SUBSTRUCTURE
     1 SVM         1 TEMP              0 ****  ****    0 ROOT
