@<TRIPOS>MOLECULE
SVM
   40    42     1     0     0
SMALL
bcc


@<TRIPOS>ATOM
      1 N1          51.2660   120.1650    31.2610 nb         1 SVM      -0.655000
      2 C4          51.6790   117.9340    31.9890 ca         1 SVM      -0.247300
      3 C5          53.0220   118.0560    31.6670 ca         1 SVM      -0.091000
      4 C6          53.4750   119.2540    31.1370 ca         1 SVM      -0.250300
      5 C7          52.5530   120.2740    30.9530 ca         1 SVM       0.407200
      6 C8          43.9600   120.2230    31.8630 c5         1 SVM       0.116700
      7 C10         41.5920   119.7650    31.6250 c5         1 SVM      -0.076700
      8 C13         43.3090   120.7670    30.5770 c5         1 SVM      -0.084700
      9 N           47.1270   118.5970    31.0640 ns         1 SVM      -0.524900
     10 C           46.2910   119.6230    31.2880 cs         1 SVM       0.608400
     11 C1          48.5410   118.7220    30.8060 c3         1 SVM       0.114000
     12 C11         41.2200   121.2510    31.6990 c5         1 SVM      -0.081400
     13 C12         42.4130   121.9440    30.9890 c5         1 SVM      -0.075400
     14 C14         42.2780   119.6820    30.2580 c5         1 SVM      -0.087400
     15 C3          50.8280   119.0160    31.7750 ca         1 SVM       0.416600
     16 C9          42.7740   119.5190    32.5730 c5         1 SVM      -0.090400
     17 N2          45.0360   119.2860    31.6130 ns         1 SVM      -0.516900
     18 S           46.7880   121.2310    31.1630 s          1 SVM      -0.676400
     19 H1          51.2910   117.0140    32.4050 ha         1 SVM       0.136000
     20 H2          53.7030   117.2310    31.8300 ha         1 SVM       0.135000
     21 H3          54.5130   119.4000    30.8720 ha         1 SVM       0.141000
     22 H4          52.8700   121.2250    30.5410 h4         1 SVM       0.021100
     23 H5          44.3670   121.0420    32.4580 h1         1 SVM       0.098700
     24 H6          40.7550   119.0860    31.7900 hc         1 SVM       0.066700
     25 H7          44.0380   121.0080    29.8050 hc         1 SVM       0.093700
     26 H8          46.7850   117.6610    31.2260 hn         1 SVM       0.294500
     27 H9          48.8560   117.8090    30.3000 h1         1 SVM       0.073200
     28 H10         48.7070   119.5560    30.1250 h1         1 SVM       0.073200
     29 H11         41.0850   121.5880    32.7290 hc         1 SVM       0.044700
     30 H12         40.2830   121.4460    31.1740 hc         1 SVM       0.044700
     31 H13         42.9400   122.6490    31.6360 hc         1 SVM       0.052200
     32 H14         42.0810   122.4990    30.1110 hc         1 SVM       0.052200
     33 H15         41.6200   119.9420    29.4260 hc         1 SVM       0.047700
     34 H16         42.7210   118.7040    30.0510 hc         1 SVM       0.047700
     35 H17         49.0300   119.8470    32.5620 hc         1 SVM       0.068200
     36 H18         49.1760   118.0980    32.7700 hc         1 SVM       0.068200
     37 H19         42.9620   118.4480    32.6860 hc         1 SVM       0.047700
     38 H20         42.6010   119.9150    33.5740 hc         1 SVM       0.047700
     39 H21         44.8050   118.3040    31.6540 hn         1 SVM       0.296500
     40 C2          49.3630   118.9250    32.0820 c3         1 SVM      -0.156700
@<TRIPOS>BOND
     1     1     5 ar  
     2     1    15 ar  
     3     2     3 ar  
     4     2    15 ar  
     5     2    19 1   
     6     3     4 ar  
     7     3    20 1   
     8     4     5 ar  
     9     4    21 1   
    10     5    22 1   
    11     6     8 1   
    12     6    16 1   
    13     6    17 1   
    14     6    23 1   
    15     7    12 1   
    16     7    14 1   
    17     7    16 1   
    18     7    24 1   
    19     8    13 1   
    20     8    14 1   
    21     8    25 1   
    22     9    10 1   
    23     9    11 1   
    24     9    26 1   
    25    10    17 1   
    26    10    18 2   
    27    11    27 1   
    28    11    28 1   
    29    11    40 1   
    30    12    13 1   
    31    12    29 1   
    32    12    30 1   
    33    13    31 1   
    34    13    32 1   
    35    14    33 1   
    36    14    34 1   
    37    15    40 1   
    38    16    37 1   
    39    16    38 1   
    40    17    39 1   
    41    35    40 1   
    42    36    40 1   
@<TRIPOS>SUBSTRUCTURE
     1 SVM         1 TEMP              0 ****  ****    0 ROOT
