@<TRIPOS>MOLECULE
SVN
   15    16     1     0     0
SMALL
No Charge or Current Charge


@<TRIPOS>ATOM
      1 CAD         -2.0920     0.2150    -0.0360 cc         1 SVN      -0.255400
      2 SAG         -1.1130     1.7180    -0.0290 ss         1 SVN      -0.098900
      3 CAI          0.3800     0.7380    -0.0020 ca         1 SVN       0.343300
      4 NAE          1.6300     1.2690     0.0130 nb         1 SVN      -0.601000
      5 CAB          2.6300     0.3380     0.0330 ca         1 SVN       0.297900
      6 CAC          2.3740    -1.0660     0.0370 ca         1 SVN       0.278900
      7 NAF          1.1100    -1.5830     0.0210 nb         1 SVN      -0.603000
      8 CAJ          0.1330    -0.6340     0.0010 ca         1 SVN       0.295800
      9 CAH         -1.3040    -0.9170    -0.0190 cd         1 SVN       0.045200
     10 NAA         -1.8650    -2.1740    -0.0200 nv         1 SVN      -0.897000
     11 H1          -3.1740     0.2880    -0.0520 h4         1 SVN       0.222000
     12 H2           3.6510     0.7170     0.0460 h4         1 SVN       0.032100
     13 H3           3.1950    -1.7810     0.0520 h4         1 SVN       0.031100
     14 H4          -1.2720    -3.0050    -0.0080 hn         1 SVN       0.454500
     15 H5          -2.8750    -2.3090    -0.0350 hn         1 SVN       0.454500
@<TRIPOS>BOND
     1     1     2 1   
     2     1     9 2   
     3     1    11 1   
     4     2     3 1   
     5     3     4 ar  
     6     3     8 ar  
     7     4     5 ar  
     8     5     6 ar  
     9     5    12 1   
    10     6     7 ar  
    11     6    13 1   
    12     7     8 ar  
    13     8     9 1   
    14     9    10 1   
    15    10    14 1   
    16    10    15 1   
@<TRIPOS>SUBSTRUCTURE
     1 SVN         1 TEMP              0 ****  ****    0 ROOT
