@<TRIPOS>MOLECULE
SVN
   15    16     1     0     0
SMALL
abcg2


@<TRIPOS>ATOM
      1 CAD         -2.0410     0.2360    -0.0150 cc         1 SVN      -0.255400
      2 SAG         -1.0710     1.6860    -0.0650 ss         1 SVN      -0.098900
      3 CAI          0.3740     0.7400    -0.0170 ca         1 SVN       0.343300
      4 NAE          1.6030     1.2200    -0.0330 nb         1 SVN      -0.601000
      5 CAB          2.5640     0.3110     0.0090 ca         1 SVN       0.297900
      6 CAC          2.2950    -1.0610     0.0630 ca         1 SVN       0.278900
      7 NAF          1.0630    -1.5390     0.0800 nb         1 SVN      -0.603000
      8 CAJ          0.0890    -0.6360     0.0420 ca         1 SVN       0.295800
      9 CAH         -1.3240    -0.9170     0.0470 cd         1 SVN       0.045200
     10 NAA         -1.7960    -2.2030     0.1700 nv         1 SVN      -0.897000
     11 H1          -3.1160     0.3310    -0.0250 h4         1 SVN       0.222000
     12 H2           3.5870     0.6660    -0.0010 h4         1 SVN       0.032100
     13 H3           3.1100    -1.7730     0.0930 h4         1 SVN       0.031100
     14 H4          -1.1820    -2.9040    -0.2150 hn         1 SVN       0.454500
     15 H5          -2.7480    -2.3420    -0.1310 hn         1 SVN       0.454500
@<TRIPOS>BOND
     1     1     2 1   
     2     1     9 2   
     3     1    11 1   
     4     2     3 1   
     5     3     4 ar  
     6     3     8 ar  
     7     4     5 ar  
     8     5     6 ar  
     9     5    12 1   
    10     6     7 ar  
    11     6    13 1   
    12     7     8 ar  
    13     8     9 1   
    14     9    10 1   
    15    10    14 1   
    16    10    15 1   
@<TRIPOS>SUBSTRUCTURE
     1 SVN         1 TEMP              0 ****  ****    0 ROOT
