@<TRIPOS>MOLECULE
SVO
   27    27     1     0     0
SMALL
abcg2


@<TRIPOS>ATOM
      1 N1          -5.4620    -0.2190    16.2690 n7         1 SVO      -0.813600
      2 C7          -5.7930     3.8470    14.0940 ca         1 SVO      -0.223500
      3 N2          -4.1270    -0.0180    16.5230 no         1 SVO       0.837500
      4 O1          -3.3490    -0.7170    15.8930 o          1 SVO      -0.389000
      5 C1          -4.9240     6.2860    12.9540 c3         1 SVO       0.211600
      6 C5          -6.1530     2.4510    16.0190 ca         1 SVO      -0.431500
      7 C6          -6.2100     2.6550    14.6330 ca         1 SVO       0.057500
      8 C4          -5.6630     3.4590    16.8550 ca         1 SVO       0.057500
      9 C3          -5.2540     4.6590    16.3220 ca         1 SVO      -0.223500
     10 O3          -7.7840     0.4020    15.9390 o          1 SVO      -0.513000
     11 C2          -5.3030     4.8940    14.9220 ca         1 SVO       0.411000
     12 S           -6.6760     0.9460    16.6780 sy         1 SVO       1.205600
     13 O           -6.7190     1.0070    18.1100 o          1 SVO      -0.513000
     14 O2          -3.8300     0.8110    17.3650 o          1 SVO      -0.389000
     15 N           -4.8970     6.0720    14.3940 nh         1 SVO      -0.814400
     16 C           -4.4110     7.1390    15.2580 c3         1 SVO       0.211600
     17 H1          -5.6110    -0.7340    15.4060 hn         1 SVO       0.524000
     18 H2          -5.8480     3.9810    13.0250 ha         1 SVO       0.122500
     19 H3          -4.5480     7.2820    12.7400 h1         1 SVO       0.047033
     20 H4          -4.2960     5.5600    12.4320 h1         1 SVO       0.047033
     21 H5          -5.9410     6.2090    12.5590 h1         1 SVO       0.047033
     22 H6          -6.5840     1.8750    13.9830 ha         1 SVO       0.134000
     23 H7          -5.6110     3.2970    17.9220 ha         1 SVO       0.134000
     24 H8          -4.8880     5.4240    16.9890 ha         1 SVO       0.122500
     25 H9          -5.1700     7.4340    15.9860 h1         1 SVO       0.047033
     26 H10         -3.5120     6.8350    15.8020 h1         1 SVO       0.047033
     27 H11         -4.1690     8.0030    14.6470 h1         1 SVO       0.047033
@<TRIPOS>BOND
     1     1     3 1   
     2     1    12 1   
     3     1    17 1   
     4     2     7 ar  
     5     2    11 ar  
     6     2    18 1   
     7     3     4 1   
     8     3    14 1   
     9     5    15 1   
    10     5    19 1   
    11     5    20 1   
    12     5    21 1   
    13     6     7 ar  
    14     6     8 ar  
    15     6    12 1   
    16     7    22 1   
    17     8     9 ar  
    18     8    23 1   
    19     9    11 ar  
    20     9    24 1   
    21    10    12 2   
    22    11    15 1   
    23    12    13 2   
    24    15    16 1   
    25    16    25 1   
    26    16    26 1   
    27    16    27 1   
@<TRIPOS>SUBSTRUCTURE
     1 SVO         1 TEMP              0 ****  ****    0 ROOT
