@<TRIPOS>MOLECULE
SVO
   27    27     1     0     0
SMALL
No Charge or Current Charge


@<TRIPOS>ATOM
      1 N1          -5.5100    -0.2570    16.3250 n7         1 SVO      -0.813600
      2 C7          -5.9290     3.8400    14.1770 ca         1 SVO      -0.223500
      3 N2          -4.2900     0.2930    16.2720 no         1 SVO       0.837500
      4 O1          -3.6470    -0.0300    15.2790 o          1 SVO      -0.389000
      5 C1          -4.4650     6.1310    12.9690 c3         1 SVO       0.211600
      6 C5          -6.1230     2.3630    16.0980 ca         1 SVO      -0.431500
      7 C6          -6.3520     2.6230    14.7340 ca         1 SVO       0.057500
      8 C4          -5.4880     3.3310    16.9000 ca         1 SVO       0.057500
      9 C3          -5.0720     4.5430    16.3290 ca         1 SVO      -0.223500
     10 O3          -7.8720     0.3720    16.1160 o          1 SVO      -0.513000
     11 C2          -5.2850     4.8100    14.9660 ca         1 SVO       0.411000
     12 S           -6.6660     0.8090    16.8200 sy         1 SVO       1.205600
     13 O           -6.6060     0.8580    18.2830 o          1 SVO      -0.513000
     14 O2          -3.7910     0.6610    17.3370 o          1 SVO      -0.389000
     15 N           -4.8600     6.0360    14.3950 nh         1 SVO      -0.814400
     16 C           -4.7910     7.2810    15.1990 c3         1 SVO       0.211600
     17 H1          -5.7300    -0.4550    15.3620 hn         1 SVO       0.524000
     18 H2          -6.1200     4.0280    13.1260 ha         1 SVO       0.122500
     19 H3          -3.7610     6.9590    12.8120 h1         1 SVO       0.047033
     20 H4          -3.9670     5.2080    12.6430 h1         1 SVO       0.047033
     21 H5          -5.3460     6.2990    12.3350 h1         1 SVO       0.047033
     22 H6          -6.8560     1.8940    14.1000 ha         1 SVO       0.134000
     23 H7          -5.3080     3.1500    17.9600 ha         1 SVO       0.134000
     24 H8          -4.5700     5.2710    16.9580 ha         1 SVO       0.122500
     25 H9          -5.6010     7.3090    15.9400 h1         1 SVO       0.047033
     26 H10         -3.8290     7.3470    15.7250 h1         1 SVO       0.047033
     27 H11         -4.8990     8.1670    14.5590 h1         1 SVO       0.047033
@<TRIPOS>BOND
     1     1     3 1   
     2     1    12 1   
     3     1    17 1   
     4     2     7 ar  
     5     2    11 ar  
     6     2    18 1   
     7     3     4 1   
     8     3    14 1   
     9     5    15 1   
    10     5    19 1   
    11     5    20 1   
    12     5    21 1   
    13     6     7 ar  
    14     6     8 ar  
    15     6    12 1   
    16     7    22 1   
    17     8     9 ar  
    18     8    23 1   
    19     9    11 ar  
    20     9    24 1   
    21    10    12 2   
    22    11    15 1   
    23    12    13 2   
    24    15    16 1   
    25    16    25 1   
    26    16    26 1   
    27    16    27 1   
@<TRIPOS>SUBSTRUCTURE
     1 SVO         1 TEMP              0 ****  ****    0 ROOT
