@<TRIPOS>MOLECULE
SVQ
   44    46     1     0     0
SMALL
abcg2


@<TRIPOS>ATOM
      1 CL2         -2.2730     0.2030    -2.6500 cl         1 SVQ      -0.218000
      2 C25         -1.8780     1.4540    -1.5080 ca         1 SVQ       0.141000
      3 C24         -1.7890     2.7480    -1.9990 ca         1 SVQ      -0.121000
      4 C23         -1.4860     3.7910    -1.1380 ca         1 SVQ      -0.115000
      5 C22         -1.2710     3.5300     0.2070 ca         1 SVQ      -0.118000
      6 C21         -1.3580     2.2290     0.6770 ca         1 SVQ      -0.077000
      7 C20         -1.6610     1.1590    -0.1630 ca         1 SVQ      -0.056300
      8 C14         -1.7790    -0.2230     0.4450 c6         1 SVQ       0.167000
      9 C13         -3.2520    -0.6130     0.5710 c6         1 SVQ      -0.208700
     10 C17         -3.9400     0.1520     1.7260 c          1 SVQ       0.722000
     11 O19         -3.2870     0.3040     2.7770 o          1 SVQ      -0.723000
     12 O18         -5.1160     0.5080     1.5210 o          1 SVQ      -0.723000
     13 C12         -3.3740    -2.1150     0.7780 c6         1 SVQ      -0.055400
     14 C11         -2.7650    -2.8150    -0.4210 c6         1 SVQ      -0.158400
     15 C10         -1.3240    -2.4330    -0.6440 c          1 SVQ       0.574000
     16 O15         -0.5390    -3.2200    -1.1610 o          1 SVQ      -0.617000
     17 N9          -0.9380    -1.1980    -0.2540 n          1 SVQ      -0.394800
     18 C8           0.4710    -0.8590    -0.3340 c3         1 SVQ       0.098000
     19 C7           1.2430    -1.2600     0.9270 c3         1 SVQ      -0.064100
     20 C2           2.6750    -0.8220     0.8320 ca         1 SVQ      -0.058300
     21 C3           3.0840     0.4070     1.3430 ca         1 SVQ      -0.100000
     22 C4           4.3950     0.8420     1.2130 ca         1 SVQ      -0.107500
     23 C5           5.3100     0.0330     0.5580 ca         1 SVQ       0.111000
     24 CL1          6.9550     0.5630     0.3950 cl         1 SVQ      -0.231000
     25 C6           4.9340    -1.1940     0.0360 ca         1 SVQ      -0.107500
     26 C1           3.6180    -1.6110     0.1770 ca         1 SVQ      -0.100000
     27 H24         -1.9600     2.9390    -3.0500 ha         1 SVQ       0.113000
     28 H23         -1.4180     4.8010    -1.5220 ha         1 SVQ       0.101000
     29 H22         -1.0350     4.3360     0.8900 ha         1 SVQ       0.107000
     30 H21         -1.1920     2.0290     1.7280 ha         1 SVQ       0.138000
     31 H14         -1.3980    -0.1450     1.4680 h1         1 SVQ       0.082700
     32 H13         -3.7750    -0.3680    -0.3570 hc         1 SVQ       0.054700
     33 H121        -2.8620    -2.4160     1.6970 hc         1 SVQ       0.050700
     34 H122        -4.4230    -2.3980     0.8870 hc         1 SVQ       0.050700
     35 H111        -2.8090    -3.9010    -0.3300 hc         1 SVQ       0.056700
     36 H112        -3.3250    -2.5510    -1.3250 hc         1 SVQ       0.056700
     37 H81C         0.9100    -1.3390    -1.2070 h1         1 SVQ       0.055700
     38 H82C         0.5660     0.2170    -0.4900 h1         1 SVQ       0.055700
     39 H71C         0.7730    -0.8070     1.8040 hc         1 SVQ       0.062700
     40 H72C         1.1840    -2.3420     1.0550 hc         1 SVQ       0.062700
     41 H3           2.3720     1.0400     1.8600 ha         1 SVQ       0.124000
     42 H1           3.3250    -2.5710    -0.2310 ha         1 SVQ       0.124000
     43 H4           4.6970     1.7970     1.6210 ha         1 SVQ       0.121500
     44 H6           5.6530    -1.8210    -0.4730 ha         1 SVQ       0.121500
@<TRIPOS>BOND
     1     1     2 1   
     2     2     3 ar  
     3     2     7 ar  
     4     3     4 ar  
     5     3    27 1   
     6     4     5 ar  
     7     4    28 1   
     8     5     6 ar  
     9     5    29 1   
    10     6     7 ar  
    11     6    30 1   
    12     7     8 1   
    13     8     9 1   
    14     8    17 1   
    15     8    31 1   
    16     9    10 1   
    17     9    13 1   
    18     9    32 1   
    19    10    11 1   
    20    10    12 1   
    21    13    14 1   
    22    13    33 1   
    23    13    34 1   
    24    14    15 1   
    25    14    35 1   
    26    14    36 1   
    27    15    16 2   
    28    15    17 1   
    29    17    18 1   
    30    18    19 1   
    31    18    37 1   
    32    18    38 1   
    33    19    20 1   
    34    19    39 1   
    35    19    40 1   
    36    20    21 ar  
    37    20    26 ar  
    38    21    22 ar  
    39    21    41 1   
    40    22    23 ar  
    41    22    43 1   
    42    23    24 1   
    43    23    25 ar  
    44    25    26 ar  
    45    25    44 1   
    46    26    42 1   
@<TRIPOS>SUBSTRUCTURE
     1 SVQ         1 TEMP              0 ****  ****    0 ROOT
