@<TRIPOS>MOLECULE
SVQ
   44    46     1     0     0
SMALL
No Charge or Current Charge


@<TRIPOS>ATOM
      1 Cl2         -2.2480     0.3820    -2.6370 cl         1 SVQ      -0.218000
      2 C25         -1.7960     1.5130    -1.3570 ca         1 SVQ       0.141000
      3 C24         -1.5640     2.8500    -1.7250 ca         1 SVQ      -0.121000
      4 C23         -1.1830     3.7980    -0.7630 ca         1 SVQ      -0.115000
      5 C22         -1.0300     3.4090     0.5760 ca         1 SVQ      -0.118000
      6 C21         -1.2600     2.0750     0.9520 ca         1 SVQ      -0.077000
      7 C20         -1.6460     1.1110    -0.0040 ca         1 SVQ      -0.056300
      8 C14         -1.8680    -0.3410     0.4660 c6         1 SVQ       0.167000
      9 C13         -3.3780    -0.7060     0.4900 c6         1 SVQ      -0.208700
     10 C17         -4.1290     0.1160     1.5570 c          1 SVQ       0.722000
     11 O19         -3.8060    -0.0220     2.7270 o          1 SVQ      -0.723000
     12 O18         -5.0220     0.8610     1.1820 o          1 SVQ      -0.723000
     13 C12         -3.5910    -2.2230     0.6740 c6         1 SVQ      -0.055400
     14 C11         -2.9120    -2.9680    -0.4860 c6         1 SVQ      -0.158400
     15 C10         -1.4290    -2.6090    -0.6450 c          1 SVQ       0.574000
     16 O15         -0.6520    -3.4490    -1.0830 o          1 SVQ      -0.617000
     17 N9          -0.9850    -1.3260    -0.2390 n          1 SVQ      -0.394800
     18 C8           0.4530    -0.9690    -0.3920 c3         1 SVQ       0.098000
     19 C7           1.2550    -1.0720     0.9200 c3         1 SVQ      -0.064100
     20 C2           2.7020    -0.6400     0.7320 ca         1 SVQ      -0.058300
     21 C3           3.0270     0.7300     0.6830 ca         1 SVQ      -0.100000
     22 C4           4.3610     1.1350     0.5030 ca         1 SVQ      -0.107500
     23 C5           5.3750     0.1720     0.3710 ca         1 SVQ       0.111000
     24 Cl1          7.0440     0.6790     0.1450 cl         1 SVQ      -0.231000
     25 C6           5.0570    -1.1950     0.4170 ca         1 SVQ      -0.107500
     26 C1           3.7230    -1.6020     0.5970 ca         1 SVQ      -0.100000
     27 H24         -1.6780     3.1520    -2.7640 ha         1 SVQ       0.113000
     28 H23         -1.0040     4.8310    -1.0550 ha         1 SVQ       0.101000
     29 H22         -0.7330     4.1410     1.3240 ha         1 SVQ       0.107000
     30 H21         -1.1370     1.7920     1.9960 ha         1 SVQ       0.138000
     31 H14         -1.5430    -0.3860     1.5160 h1         1 SVQ       0.082700
     32 H13         -3.8210    -0.4320    -0.4760 hc         1 SVQ       0.054700
     33 H121        -3.1720    -2.5580     1.6330 hc         1 SVQ       0.050700
     34 H122        -4.6650    -2.4570     0.6930 hc         1 SVQ       0.050700
     35 H111        -3.0340    -4.0570    -0.4260 hc         1 SVQ       0.056700
     36 H112        -3.4030    -2.6420    -1.4130 hc         1 SVQ       0.056700
     37 H81C         0.9250    -1.6100    -1.1470 h1         1 SVQ       0.055700
     38 H82C         0.5350     0.0550    -0.7760 h1         1 SVQ       0.055700
     39 H71C         0.7850    -0.4460     1.6870 hc         1 SVQ       0.062700
     40 H72C         1.2030    -2.1040     1.2900 hc         1 SVQ       0.062700
     41 H3           2.2450     1.4800     0.7830 ha         1 SVQ       0.124000
     42 H1           3.4840    -2.6630     0.6300 ha         1 SVQ       0.124000
     43 H4           4.6090     2.1930     0.4650 ha         1 SVQ       0.121500
     44 H6           5.8440    -1.9390     0.3130 ha         1 SVQ       0.121500
@<TRIPOS>BOND
     1     1     2 1   
     2     2     3 ar  
     3     2     7 ar  
     4     3     4 ar  
     5     3    27 1   
     6     4     5 ar  
     7     4    28 1   
     8     5     6 ar  
     9     5    29 1   
    10     6     7 ar  
    11     6    30 1   
    12     7     8 1   
    13     8     9 1   
    14     8    17 1   
    15     8    31 1   
    16     9    10 1   
    17     9    13 1   
    18     9    32 1   
    19    10    11 1   
    20    10    12 1   
    21    13    14 1   
    22    13    33 1   
    23    13    34 1   
    24    14    15 1   
    25    14    35 1   
    26    14    36 1   
    27    15    16 2   
    28    15    17 1   
    29    17    18 1   
    30    18    19 1   
    31    18    37 1   
    32    18    38 1   
    33    19    20 1   
    34    19    39 1   
    35    19    40 1   
    36    20    21 ar  
    37    20    26 ar  
    38    21    22 ar  
    39    21    41 1   
    40    22    23 ar  
    41    22    43 1   
    42    23    24 1   
    43    23    25 ar  
    44    25    26 ar  
    45    25    44 1   
    46    26    42 1   
@<TRIPOS>SUBSTRUCTURE
     1 SVQ         1 TEMP              0 ****  ****    0 ROOT
