@<TRIPOS>MOLECULE
SVR
  120   127     1     0     0
SMALL
No Charge or Current Charge


@<TRIPOS>ATOM
      1 O35        -17.4280     0.9020    -4.0600 o          1 SVR      -0.716867
      2 S31        -17.8670     1.5120    -2.7960 s6         1 SVR       1.282600
      3 O36        -17.9540     2.9790    -2.7780 o          1 SVR      -0.716867
      4 O34        -18.9400     0.8000    -2.0870 o          1 SVR      -0.716867
      5 C22        -16.4280     1.1820    -1.6830 ca         1 SVR      -0.265000
      6 C18        -15.6940     0.0050    -1.8250 ca         1 SVR       0.045000
      7 C11        -14.5920    -0.3000    -0.9920 ca         1 SVR      -0.268500
      8 S17        -13.7430    -1.9260    -1.3900 s6         1 SVR       1.265100
      9 O23        -12.3760    -1.4860    -1.7020 o          1 SVR      -0.713200
     10 O24        -13.9050    -2.6560    -0.1260 o          1 SVR      -0.713200
     11 O25        -14.5040    -2.4630    -2.5270 o          1 SVR      -0.713200
     12 C16        -16.0790     2.0860    -0.6800 ca         1 SVR       0.026500
     13 C10        -14.9900     1.8480     0.1950 ca         1 SVR       0.002000
     14 C15        -14.6770     2.8200     1.2030 ca         1 SVR      -0.203000
     15 S21        -15.6330     4.4220     1.4430 s6         1 SVR       1.269100
     16 O28        -15.4540     5.0760     0.1380 o          1 SVR      -0.708700
     17 O29        -16.9890     3.9240     1.7200 o          1 SVR      -0.708700
     18 O30        -14.9490     5.0660     2.5750 o          1 SVR      -0.708700
     19 C12        -13.6000     2.5730     2.0680 ca         1 SVR      -0.072000
     20 C7         -12.8490     1.4110     1.9560 ca         1 SVR      -0.137500
     21 C6         -14.2210     0.6330     0.0580 ca         1 SVR       0.044500
     22 C3         -13.1260     0.4450     0.9760 ca         1 SVR      -0.034000
     23 N1         -12.2960    -0.7040     1.0210 ns         1 SVR      -0.160500
     24 C2         -10.9230    -0.8150     1.2020 c          1 SVR       0.627200
     25 O4         -10.1840     0.1660     1.2330 o          1 SVR      -0.606600
     26 C5         -10.3710    -2.2190     1.3770 ca         1 SVR      -0.086600
     27 C8          -8.9770    -2.4330     1.2840 ca         1 SVR      -0.053000
     28 C9         -11.2060    -3.3220     1.6640 ca         1 SVR      -0.057500
     29 C14        -10.6580    -4.6010     1.8370 ca         1 SVR      -0.119500
     30 C20         -9.2720    -4.8120     1.7310 ca         1 SVR      -0.119300
     31 C27         -8.7160    -6.2210     1.9280 c3         1 SVR      -0.033800
     32 C13         -8.4180    -3.7230     1.4490 ca         1 SVR      -0.073500
     33 N19         -7.0160    -3.9730     1.3620 ns         1 SVR      -0.149000
     34 C26         -5.9380    -3.1970     0.9450 c          1 SVR       0.604700
     35 O32         -6.0610    -2.0580     0.5070 o          1 SVR      -0.561100
     36 C33         -4.5720    -3.8580     1.0530 ca         1 SVR      -0.113600
     37 C37         -3.4170    -3.1420     0.6520 ca         1 SVR      -0.095000
     38 C38         -4.4110    -5.1760     1.5470 ca         1 SVR      -0.115500
     39 C40         -3.1350    -5.7520     1.6370 ca         1 SVR      -0.102000
     40 C42         -2.0030    -5.0280     1.2360 ca         1 SVR      -0.136000
     41 C39         -2.1300    -3.7210     0.7380 ca         1 SVR      -0.020000
     42 N41         -0.9340    -3.0500     0.3550 ns         1 SVR      -0.166500
     43 C43         -0.6980    -1.8170    -0.2370 c          1 SVR       0.661100
     44 O45         -1.5780    -1.0340    -0.5740 o          1 SVR      -0.585100
     45 N44          0.6610    -1.5850    -0.3970 ns         1 SVR      -0.166500
     46 C46          1.3900    -0.4990    -0.9610 ca         1 SVR      -0.020000
     47 C47          2.7930    -0.5240    -0.8430 ca         1 SVR      -0.095000
     48 C48          0.7800     0.5800    -1.6340 ca         1 SVR      -0.136000
     49 C50          1.5660     1.6130    -2.1680 ca         1 SVR      -0.102000
     50 C52          2.9630     1.5840    -2.0410 ca         1 SVR      -0.115500
     51 C49          3.6010     0.5090    -1.3750 ca         1 SVR      -0.113600
     52 C51          5.1120     0.4370    -1.2170 c          1 SVR       0.604700
     53 O54          5.6450    -0.5040    -0.6370 o          1 SVR      -0.561100
     54 N53          5.8270     1.4900    -1.7780 ns         1 SVR      -0.149000
     55 C55          7.2180     1.8050    -1.8210 ca         1 SVR      -0.073500
     56 C56          8.1780     1.1340    -1.0290 ca         1 SVR      -0.053000
     57 C57          7.6380     2.8480    -2.6770 ca         1 SVR      -0.119300
     58 C59          6.6370     3.6110    -3.5430 c3         1 SVR      -0.033800
     59 C60          8.9990     3.1940    -2.7350 ca         1 SVR      -0.119500
     60 C62          9.9480     2.5170    -1.9540 ca         1 SVR      -0.057500
     61 C58          9.5500     1.4700    -1.0930 ca         1 SVR      -0.086600
     62 C61         10.5420     0.7270    -0.2170 c          1 SVR       0.627200
     63 O64         10.1630     0.0260     0.7190 o          1 SVR      -0.606600
     64 N63         11.8880     0.8960    -0.5200 ns         1 SVR      -0.160500
     65 C65         13.0460     0.4710     0.1780 ca         1 SVR      -0.034000
     66 C67         13.0010     0.6630     1.5680 ca         1 SVR      -0.137500
     67 C70         14.0750     0.3370     2.3850 ca         1 SVR      -0.072000
     68 C71         15.2570    -0.1920     1.8440 ca         1 SVR      -0.203000
     69 S75         16.6540    -0.5920     3.0370 s6         1 SVR       1.269100
     70 O80         16.8370    -2.0340     2.8120 o          1 SVR      -0.708700
     71 O81         17.7350     0.2690     2.5350 o          1 SVR      -0.708700
     72 O82         16.1050    -0.2210     4.3510 o          1 SVR      -0.708700
     73 C66         14.2320    -0.0650    -0.4440 ca         1 SVR       0.044500
     74 C68         15.3380    -0.3920     0.4250 ca         1 SVR       0.002000
     75 C72         16.5290    -0.9190    -0.1310 ca         1 SVR       0.026500
     76 C69         14.3830    -0.3050    -1.8690 ca         1 SVR      -0.268500
     77 S73         13.0930     0.0060    -3.1960 s6         1 SVR       1.265100
     78 O77         11.9860    -0.8510    -2.7510 o          1 SVR      -0.713200
     79 O78         12.8760     1.4520    -3.0560 o          1 SVR      -0.713200
     80 O79         13.7480    -0.4120    -4.4430 o          1 SVR      -0.713200
     81 C74         15.6050    -0.8300    -2.3510 ca         1 SVR       0.045000
     82 C76         16.6660    -1.1420    -1.5020 ca         1 SVR      -0.265000
     83 S83         18.2410    -1.8100    -2.2000 s6         1 SVR       1.282600
     84 O85         17.7610    -2.6220    -3.3280 o          1 SVR      -0.716867
     85 O86         18.9380    -0.5670    -2.5640 o          1 SVR      -0.716867
     86 O84         18.8080    -2.5490    -1.0620 o          1 SVR      -0.716867
     87 H18        -16.0070    -0.6770    -2.6110 ha         1 SVR       0.142500
     88 H16        -16.6830     2.9810    -0.5990 ha         1 SVR       0.156500
     89 H12        -13.3320     3.2780     2.8510 ha         1 SVR       0.115500
     90 H7         -12.0440     1.2560     2.6700 ha         1 SVR       0.085500
     91 HN1        -12.7860    -1.5820     0.9000 hn         1 SVR       0.199500
     92 H8          -8.3380    -1.5790     1.0860 ha         1 SVR       0.151500
     93 H9         -12.2800    -3.2030     1.7800 ha         1 SVR       0.154500
     94 H14        -11.3210    -5.4340     2.0620 ha         1 SVR       0.097000
     95 H271        -8.1660    -6.5560     1.0410 hc         1 SVR       0.025367
     96 H272        -8.0320    -6.2590     2.7850 hc         1 SVR       0.025367
     97 H273        -9.5120    -6.9520     2.1130 hc         1 SVR       0.025367
     98 H19         -6.7570    -4.9010     1.6680 hn         1 SVR       0.141500
     99 H37         -3.5390    -2.1300     0.2800 ha         1 SVR       0.153000
    100 H38         -5.2630    -5.7710     1.8690 ha         1 SVR       0.117500
    101 H40         -3.0230    -6.7640     2.0190 ha         1 SVR       0.107000
    102 H42         -1.0210    -5.4900     1.3130 ha         1 SVR       0.121000
    103 H41         -0.0940    -3.5770     0.5580 hn         1 SVR       0.146000
    104 H44          1.2510    -2.3290    -0.0490 hn         1 SVR       0.146000
    105 H47          3.2620    -1.3600    -0.3270 ha         1 SVR       0.153000
    106 H48         -0.2960     0.6370    -1.7610 ha         1 SVR       0.121000
    107 H50          1.0870     2.4430    -2.6850 ha         1 SVR       0.107000
    108 H52          3.5320     2.4060    -2.4690 ha         1 SVR       0.117500
    109 H53          5.2480     2.1710    -2.2500 hn         1 SVR       0.141500
    110 H56          7.8740     0.3450    -0.3490 ha         1 SVR       0.151500
    111 H591         5.8960     4.1310    -2.9240 hc         1 SVR       0.025367
    112 H592         7.1300     4.3660    -4.1670 hc         1 SVR       0.025367
    113 H593         6.1000     2.9320    -4.2160 hc         1 SVR       0.025367
    114 H60          9.3300     4.0000    -3.3860 ha         1 SVR       0.097000
    115 H62         10.9840     2.8370    -2.0130 ha         1 SVR       0.154500
    116 H63         12.0750     1.4010    -1.3780 hn         1 SVR       0.199500
    117 H67         12.1210     1.0960     2.0350 ha         1 SVR       0.085500
    118 H70         13.9730     0.5130     3.4520 ha         1 SVR       0.115500
    119 H72         17.3820    -1.1650     0.4890 ha         1 SVR       0.156500
    120 H74         15.7580    -1.0090    -3.4120 ha         1 SVR       0.142500
@<TRIPOS>BOND
     1     1     2 1   
     2     2     3 1   
     3     2     4 1   
     4     2     5 1   
     5     5     6 ar  
     6     5    12 ar  
     7     6     7 ar  
     8     6    87 1   
     9     7     8 1   
    10     7    21 ar  
    11     8     9 1   
    12     8    10 1   
    13     8    11 1   
    14    12    13 ar  
    15    12    88 1   
    16    13    14 ar  
    17    13    21 ar  
    18    14    15 1   
    19    14    19 ar  
    20    15    16 1   
    21    15    17 1   
    22    15    18 1   
    23    19    20 ar  
    24    19    89 1   
    25    20    22 ar  
    26    20    90 1   
    27    21    22 ar  
    28    22    23 1   
    29    23    24 1   
    30    23    91 1   
    31    24    25 2   
    32    24    26 1   
    33    26    27 ar  
    34    26    28 ar  
    35    27    32 ar  
    36    27    92 1   
    37    28    29 ar  
    38    28    93 1   
    39    29    30 ar  
    40    29    94 1   
    41    30    31 1   
    42    30    32 ar  
    43    31    95 1   
    44    31    96 1   
    45    31    97 1   
    46    32    33 1   
    47    33    34 1   
    48    33    98 1   
    49    34    35 2   
    50    34    36 1   
    51    36    37 ar  
    52    36    38 ar  
    53    37    41 ar  
    54    37    99 1   
    55    38    39 ar  
    56    38   100 1   
    57    39    40 ar  
    58    39   101 1   
    59    40    41 ar  
    60    40   102 1   
    61    41    42 1   
    62    42    43 1   
    63    42   103 1   
    64    43    44 2   
    65    43    45 1   
    66    45    46 1   
    67    45   104 1   
    68    46    47 ar  
    69    46    48 ar  
    70    47    51 ar  
    71    47   105 1   
    72    48    49 ar  
    73    48   106 1   
    74    49    50 ar  
    75    49   107 1   
    76    50    51 ar  
    77    50   108 1   
    78    51    52 1   
    79    52    53 2   
    80    52    54 1   
    81    54    55 1   
    82    54   109 1   
    83    55    56 ar  
    84    55    57 ar  
    85    56    61 ar  
    86    56   110 1   
    87    57    58 1   
    88    57    59 ar  
    89    58   111 1   
    90    58   112 1   
    91    58   113 1   
    92    59    60 ar  
    93    59   114 1   
    94    60    61 ar  
    95    60   115 1   
    96    61    62 1   
    97    62    63 2   
    98    62    64 1   
    99    64    65 1   
   100    64   116 1   
   101    65    66 ar  
   102    65    73 ar  
   103    66    67 ar  
   104    66   117 1   
   105    67    68 ar  
   106    67   118 1   
   107    68    69 1   
   108    68    74 ar  
   109    69    70 1   
   110    69    71 1   
   111    69    72 1   
   112    73    74 ar  
   113    73    76 ar  
   114    74    75 ar  
   115    75    82 ar  
   116    75   119 1   
   117    76    77 1   
   118    76    81 ar  
   119    77    78 1   
   120    77    79 1   
   121    77    80 1   
   122    81    82 ar  
   123    81   120 1   
   124    82    83 1   
   125    83    84 1   
   126    83    85 1   
   127    83    86 1   
@<TRIPOS>SUBSTRUCTURE
     1 SVR         1 TEMP              0 ****  ****    0 ROOT
