@<TRIPOS>MOLECULE
SVR
  120   127     1     0     0
SMALL
abcg2


@<TRIPOS>ATOM
      1 O35        -17.7500    -1.4420    -0.7930 o          1 SVR      -0.716867
      2 S31        -17.7370    -0.4000     0.2470 s6         1 SVR       1.282600
      3 O36        -18.3850     0.8550    -0.1630 o          1 SVR      -0.716867
      4 O34        -18.1790    -0.8890     1.5640 o          1 SVR      -0.716867
      5 C22        -16.0050    -0.0090     0.4790 ca         1 SVR      -0.265000
      6 C18        -15.1220    -1.0570     0.7800 ca         1 SVR       0.045000
      7 C11        -13.7980    -0.8210     1.0200 ca         1 SVR      -0.268500
      8 S17        -12.8320    -2.3300     1.3080 s6         1 SVR       1.265100
      9 O23        -11.7990    -2.3480     0.2660 o          1 SVR      -0.713200
     10 O24        -12.3060    -2.1930     2.6900 o          1 SVR      -0.713200
     11 O25        -13.7850    -3.4430     1.2030 o          1 SVR      -0.713200
     12 C16        -15.5450     1.2630     0.3710 ca         1 SVR       0.026500
     13 C10        -14.1770     1.5660     0.5960 ca         1 SVR       0.002000
     14 C15        -13.7070     2.9000     0.4420 ca         1 SVR      -0.203000
     15 S21        -14.7800     4.2440    -0.0990 s6         1 SVR       1.269100
     16 O28        -15.2710     3.8350    -1.4250 o          1 SVR      -0.708700
     17 O29        -15.8390     4.3380     0.9210 o          1 SVR      -0.708700
     18 O30        -13.9170     5.4350    -0.1440 o          1 SVR      -0.708700
     19 C12        -12.3980     3.1990     0.6970 ca         1 SVR      -0.072000
     20 C7         -11.5250     2.2050     1.1380 ca         1 SVR      -0.137500
     21 C6         -13.2700     0.5170     0.9720 ca         1 SVR       0.044500
     22 C3         -11.9240     0.8990     1.2800 ca         1 SVR      -0.034000
     23 N1         -10.9730    -0.0060     1.7680 ns         1 SVR      -0.160500
     24 C2          -9.7970    -0.2490     1.1340 c          1 SVR       0.627200
     25 O4          -9.4520     0.3160     0.1100 o          1 SVR      -0.606600
     26 C5          -8.9210    -1.2580     1.7960 ca         1 SVR      -0.086600
     27 C8          -7.9450    -1.8780     1.0240 ca         1 SVR      -0.053000
     28 C9          -9.0210    -1.5770     3.1470 ca         1 SVR      -0.057500
     29 C14         -8.1630    -2.5120     3.7010 ca         1 SVR      -0.119500
     30 C20         -7.1820    -3.1430     2.9440 ca         1 SVR      -0.119300
     31 C27         -6.2610    -4.1460     3.5690 c3         1 SVR      -0.033800
     32 C13         -7.0830    -2.8090     1.5870 ca         1 SVR      -0.073500
     33 N19         -6.1070    -3.4510     0.8050 ns         1 SVR      -0.149000
     34 C26         -5.2740    -2.8280    -0.0690 c          1 SVR       0.604700
     35 O32         -5.2960    -1.6260    -0.2680 o          1 SVR      -0.561100
     36 C33         -4.2990    -3.7200    -0.7670 ca         1 SVR      -0.113600
     37 C37         -3.1080    -3.1400    -1.1940 ca         1 SVR      -0.095000
     38 C38         -4.5600    -5.0660    -1.0080 ca         1 SVR      -0.115500
     39 C40         -3.6080    -5.8300    -1.6660 ca         1 SVR      -0.102000
     40 C42         -2.4170    -5.2640    -2.0840 ca         1 SVR      -0.136000
     41 C39         -2.1550    -3.9110    -1.8560 ca         1 SVR      -0.020000
     42 N41         -0.9190    -3.4230    -2.2790 ns         1 SVR      -0.166500
     43 C43         -0.5990    -2.1240    -2.5740 c          1 SVR       0.661100
     44 O45         -1.3800    -1.1960    -2.4850 o          1 SVR      -0.585100
     45 N44          0.7010    -1.9890    -2.9840 ns         1 SVR      -0.166500
     46 C46          1.3420    -0.7940    -3.3160 ca         1 SVR      -0.020000
     47 C47          2.7160    -0.7210    -3.0990 ca         1 SVR      -0.095000
     48 C48          0.6880     0.2940    -3.8960 ca         1 SVR      -0.136000
     49 C50          1.4100     1.4300    -4.2270 ca         1 SVR      -0.102000
     50 C52          2.7740     1.5100    -3.9950 ca         1 SVR      -0.115500
     51 C49          3.4320     0.4240    -3.4240 ca         1 SVR      -0.113600
     52 C51          4.9050     0.4130    -3.1670 c          1 SVR       0.604700
     53 O54          5.5440    -0.6250    -3.1750 o          1 SVR      -0.561100
     54 N53          5.4570     1.6240    -2.9200 ns         1 SVR      -0.149000
     55 C55          6.8340     1.8620    -2.7280 ca         1 SVR      -0.073500
     56 C56          7.5600     1.1140    -1.8120 ca         1 SVR      -0.053000
     57 C57          7.4440     2.8870    -3.4570 ca         1 SVR      -0.119300
     58 C59          6.6690     3.7000    -4.4490 c3         1 SVR      -0.033800
     59 C60          8.7950     3.1280    -3.2300 ca         1 SVR      -0.119500
     60 C62          9.5280     2.3840    -2.3200 ca         1 SVR      -0.057500
     61 C58          8.9110     1.3680    -1.5940 ca         1 SVR      -0.086600
     62 C61          9.5970     0.5220    -0.5680 c          1 SVR       0.627200
     63 O64          9.0970    -0.5270    -0.1950 o          1 SVR      -0.606600
     64 N63         10.7450     1.0100    -0.0400 ns         1 SVR      -0.160500
     65 C65         11.4480     0.3220     0.9650 ca         1 SVR      -0.034000
     66 C67         10.7850     0.1590     2.1550 ca         1 SVR      -0.137500
     67 C70         11.3500    -0.5240     3.2320 ca         1 SVR      -0.072000
     68 C71         12.6080    -1.0450     3.1260 ca         1 SVR      -0.203000
     69 S75         13.2830    -1.8910     4.5690 s6         1 SVR       1.269100
     70 O80         13.5850    -3.2610     4.1200 o          1 SVR      -0.708700
     71 O81         14.4790    -1.1180     4.9430 o          1 SVR      -0.708700
     72 O82         12.2190    -1.8400     5.5840 o          1 SVR      -0.708700
     73 C66         12.7740    -0.1920     0.8010 ca         1 SVR       0.044500
     74 C68         13.3460    -0.8900     1.9190 ca         1 SVR       0.002000
     75 C72         14.6520    -1.4360     1.8150 ca         1 SVR       0.026500
     76 C69         13.5870    -0.0720    -0.3820 ca         1 SVR      -0.268500
     77 S73         13.1230     0.8030    -1.8990 s6         1 SVR       1.265100
     78 O77         11.9930     0.0660    -2.4780 o          1 SVR      -0.713200
     79 O78         12.7930     2.1790    -1.4490 o          1 SVR      -0.713200
     80 O79         14.3190     0.7870    -2.7520 o          1 SVR      -0.713200
     81 C74         14.8380    -0.6190    -0.4270 ca         1 SVR       0.045000
     82 C76         15.3720    -1.3090     0.6720 ca         1 SVR      -0.265000
     83 S83         17.0240    -1.9820     0.5230 s6         1 SVR       1.282600
     84 O85         16.9550    -2.8780    -0.6440 o          1 SVR      -0.716867
     85 O86         17.8800    -0.8050     0.3000 o          1 SVR      -0.716867
     86 O84         17.2940    -2.6810     1.7890 o          1 SVR      -0.716867
     87 H18        -15.4950    -2.0710     0.8120 ha         1 SVR       0.142500
     88 H16        -16.2430     2.0470     0.1250 ha         1 SVR       0.156500
     89 H12        -12.0310     4.2090     0.5890 ha         1 SVR       0.115500
     90 H7         -10.5140     2.4780     1.4050 ha         1 SVR       0.085500
     91 HN1        -11.3080    -0.7230     2.4110 hn         1 SVR       0.199500
     92 H8          -7.8750    -1.6440    -0.0280 ha         1 SVR       0.151500
     93 H9          -9.7440    -1.0890     3.7870 ha         1 SVR       0.154500
     94 H14         -8.2460    -2.7480     4.7540 ha         1 SVR       0.097000
     95 H271        -6.4440    -5.1550     3.1890 hc         1 SVR       0.025367
     96 H272        -5.2130    -3.9120     3.3720 hc         1 SVR       0.025367
     97 H273        -6.4000    -4.1790     4.6470 hc         1 SVR       0.025367
     98 H19         -5.9070    -4.4120     1.0320 hn         1 SVR       0.141500
     99 H37         -2.9290    -2.0980    -0.9900 ha         1 SVR       0.153000
    100 H38         -5.4970    -5.5220    -0.7190 ha         1 SVR       0.117500
    101 H40         -3.8000    -6.8750    -1.8680 ha         1 SVR       0.107000
    102 H42         -1.6860    -5.8740    -2.6020 ha         1 SVR       0.121000
    103 H41         -0.2450    -4.1330    -2.5210 hn         1 SVR       0.146000
    104 H44          1.3150    -2.7800    -2.8580 hn         1 SVR       0.146000
    105 H47          3.2320    -1.5640    -2.6560 ha         1 SVR       0.153000
    106 H48         -0.3690     0.2600    -4.1070 ha         1 SVR       0.121000
    107 H50          0.8970     2.2630    -4.6910 ha         1 SVR       0.107000
    108 H52          3.3070     2.4020    -4.2990 ha         1 SVR       0.117500
    109 H53          4.8510     2.4290    -2.8960 hn         1 SVR       0.141500
    110 H56          7.0670     0.3420    -1.2390 ha         1 SVR       0.151500
    111 H591         5.9420     4.3500    -3.9570 hc         1 SVR       0.025367
    112 H592         7.3320     4.3370    -5.0310 hc         1 SVR       0.025367
    113 H593         6.1160     3.0660    -5.1430 hc         1 SVR       0.025367
    114 H60          9.2910     3.9090    -3.7920 ha         1 SVR       0.097000
    115 H62         10.5800     2.6030    -2.2140 ha         1 SVR       0.154500
    116 H63         11.2330     1.7780    -0.4920 hn         1 SVR       0.199500
    117 H67          9.7980     0.5850     2.2690 ha         1 SVR       0.085500
    118 H70         10.7830    -0.6210     4.1460 ha         1 SVR       0.115500
    119 H72         15.0890    -1.9670     2.6440 ha         1 SVR       0.156500
    120 H74         15.4310    -0.5180    -1.3250 ha         1 SVR       0.142500
@<TRIPOS>BOND
     1     1     2 1   
     2     2     3 1   
     3     2     4 1   
     4     2     5 1   
     5     5     6 ar  
     6     5    12 ar  
     7     6     7 ar  
     8     6    87 1   
     9     7     8 1   
    10     7    21 ar  
    11     8     9 1   
    12     8    10 1   
    13     8    11 1   
    14    12    13 ar  
    15    12    88 1   
    16    13    14 ar  
    17    13    21 ar  
    18    14    15 1   
    19    14    19 ar  
    20    15    16 1   
    21    15    17 1   
    22    15    18 1   
    23    19    20 ar  
    24    19    89 1   
    25    20    22 ar  
    26    20    90 1   
    27    21    22 ar  
    28    22    23 1   
    29    23    24 1   
    30    23    91 1   
    31    24    25 2   
    32    24    26 1   
    33    26    27 ar  
    34    26    28 ar  
    35    27    32 ar  
    36    27    92 1   
    37    28    29 ar  
    38    28    93 1   
    39    29    30 ar  
    40    29    94 1   
    41    30    31 1   
    42    30    32 ar  
    43    31    95 1   
    44    31    96 1   
    45    31    97 1   
    46    32    33 1   
    47    33    34 1   
    48    33    98 1   
    49    34    35 2   
    50    34    36 1   
    51    36    37 ar  
    52    36    38 ar  
    53    37    41 ar  
    54    37    99 1   
    55    38    39 ar  
    56    38   100 1   
    57    39    40 ar  
    58    39   101 1   
    59    40    41 ar  
    60    40   102 1   
    61    41    42 1   
    62    42    43 1   
    63    42   103 1   
    64    43    44 2   
    65    43    45 1   
    66    45    46 1   
    67    45   104 1   
    68    46    47 ar  
    69    46    48 ar  
    70    47    51 ar  
    71    47   105 1   
    72    48    49 ar  
    73    48   106 1   
    74    49    50 ar  
    75    49   107 1   
    76    50    51 ar  
    77    50   108 1   
    78    51    52 1   
    79    52    53 2   
    80    52    54 1   
    81    54    55 1   
    82    54   109 1   
    83    55    56 ar  
    84    55    57 ar  
    85    56    61 ar  
    86    56   110 1   
    87    57    58 1   
    88    57    59 ar  
    89    58   111 1   
    90    58   112 1   
    91    58   113 1   
    92    59    60 ar  
    93    59   114 1   
    94    60    61 ar  
    95    60   115 1   
    96    61    62 1   
    97    62    63 2   
    98    62    64 1   
    99    64    65 1   
   100    64   116 1   
   101    65    66 ar  
   102    65    73 ar  
   103    66    67 ar  
   104    66   117 1   
   105    67    68 ar  
   106    67   118 1   
   107    68    69 1   
   108    68    74 ar  
   109    69    70 1   
   110    69    71 1   
   111    69    72 1   
   112    73    74 ar  
   113    73    76 ar  
   114    74    75 ar  
   115    75    82 ar  
   116    75   119 1   
   117    76    77 1   
   118    76    81 ar  
   119    77    78 1   
   120    77    79 1   
   121    77    80 1   
   122    81    82 ar  
   123    81   120 1   
   124    82    83 1   
   125    83    84 1   
   126    83    85 1   
   127    83    86 1   
@<TRIPOS>SUBSTRUCTURE
     1 SVR         1 TEMP              0 ****  ****    0 ROOT
