@<TRIPOS>MOLECULE
SVS
   53    56     1     0     0
SMALL
No Charge or Current Charge


@<TRIPOS>ATOM
      1 S           -2.9890    -2.3410    -1.1830 s6         1 SVS       1.182100
      2 N1           4.7410     3.1650     0.1580 nb         1 SVS      -0.301000
      3 C2           5.2200     1.8980     0.1890 ca         1 SVS       0.188900
      4 N3           4.4900     0.7580     0.2000 nb         1 SVS      -0.217000
      5 C4           3.1510     0.9150     0.1770 ca         1 SVS       0.147500
      6 C5           2.5640     2.1550     0.1470 ca         1 SVS      -0.105600
      7 C6           3.4050     3.2870     0.1400 ca         1 SVS       0.454900
      8 N6           2.9220     4.5570     0.1080 nv         1 SVS      -1.063900
      9 N7           1.1750     2.0860     0.1230 nc         1 SVS      -0.546100
     10 C8           0.9630     0.7570     0.1430 cd         1 SVS       0.397700
     11 N9           2.1410    -0.0100     0.1780 na         1 SVS      -0.290300
     12 C1           2.2430    -1.4630     0.2220 c5         1 SVS       0.315300
     13 C14         -3.7370     2.5720    -0.5900 ca         1 SVS       0.145100
     14 O14         -3.6530     2.4540    -1.9480 oh         1 SVS      -0.534100
     15 C15         -3.5660     3.8380    -0.0060 ca         1 SVS      -0.204000
     16 C16         -3.6410     3.9910     1.3880 ca         1 SVS      -0.066000
     17 C17         -3.8880     2.8720     2.2000 ca         1 SVS      -0.147000
     18 C18         -4.0600     1.6040     1.6210 ca         1 SVS      -0.072000
     19 C19         -3.9900     1.4420     0.2220 ca         1 SVS      -0.115300
     20 O1P         -3.4390    -2.2650    -2.5730 o          1 SVS      -0.523500
     21 C7           1.8910    -2.1280     1.5930 c5         1 SVS       0.082300
     22 O2           2.9480    -2.0780     2.5730 oh         1 SVS      -0.690000
     23 C21         -4.1730     0.0480    -0.3750 c3         1 SVS       0.017900
     24 C22         -2.8210    -0.6890    -0.4940 c3         1 SVS      -0.341400
     25 O2P         -3.6840    -3.2050    -0.2270 o          1 SVS      -0.523500
     26 C3           1.6350    -3.5810     1.1130 c5         1 SVS       0.111300
     27 O3           2.8830    -4.2460     0.8740 oh         1 SVS      -0.698000
     28 C9           0.8190    -3.3080    -0.1960 c5         1 SVS       0.164300
     29 O4           1.3150    -2.0410    -0.7230 os         1 SVS      -0.451000
     30 C10         -0.7120    -3.1760     0.0250 c3         1 SVS       0.185800
     31 N5          -1.4120    -2.8680    -1.2400 n7         1 SVS      -0.869300
     32 HN6          3.5500     5.2980    -0.1940 hn         1 SVS       0.507500
     33 HN6A         1.9390     4.6690    -0.1250 hn         1 SVS       0.507500
     34 H8          -0.0100     0.2790     0.1390 h5         1 SVS       0.054800
     35 H1           3.2700    -1.7240    -0.0690 h2         1 SVS       0.129700
     36 HO14        -3.4720     3.3410    -2.3230 ho         1 SVS       0.467000
     37 H15         -3.3720     4.7100    -0.6270 ha         1 SVS       0.114000
     38 H16         -3.5070     4.9720     1.8390 ha         1 SVS       0.114000
     39 H17         -3.9440     2.9880     3.2810 ha         1 SVS       0.118000
     40 H18         -4.2470     0.7440     2.2610 ha         1 SVS       0.115000
     41 H2           0.9700    -1.6910     2.0060 h1         1 SVS       0.047700
     42 HO2          2.9810    -1.1570     2.9290 ho         1 SVS       0.517000
     43 H21         -4.8560    -0.5400     0.2530 hc         1 SVS       0.068200
     44 H22         -2.3650    -0.7950     0.4950 h1         1 SVS       0.091200
     45 H3           1.0400    -4.1440     1.8470 h1         1 SVS       0.057700
     46 HO3          3.4820    -3.8870     1.5750 ho         1 SVS       0.525000
     47 H4           0.9890    -4.1020    -0.9360 h1         1 SVS       0.118700
     48 H5          -1.0910    -4.1150     0.4520 h1         1 SVS       0.053200
     49 H5'A        -0.8800    -2.3890     0.7720 h1         1 SVS       0.053200
     50 HN5         -0.9530    -2.0580    -1.6570 hn         1 SVS       0.499000
     51 H211        -4.6530     0.1090    -1.3600 hc         1 SVS       0.068200
     52 H221        -2.1480    -0.1330    -1.1560 h1         1 SVS       0.091200
     53 H6           6.3020     1.7850     0.2050 h5         1 SVS       0.049100
@<TRIPOS>BOND
     1     1    20 2   
     2     1    24 1   
     3     1    25 2   
     4     1    31 1   
     5     2     3 ar  
     6     2     7 ar  
     7     3     4 ar  
     8     3    53 1   
     9     4     5 ar  
    10     5     6 ar  
    11     5    11 1   
    12     6     7 ar  
    13     6     9 1   
    14     7     8 1   
    15     8    32 1   
    16     8    33 1   
    17     9    10 2   
    18    10    11 1   
    19    10    34 1   
    20    11    12 1   
    21    12    21 1   
    22    12    29 1   
    23    12    35 1   
    24    13    14 1   
    25    13    15 ar  
    26    13    19 ar  
    27    14    36 1   
    28    15    16 ar  
    29    15    37 1   
    30    16    17 ar  
    31    16    38 1   
    32    17    18 ar  
    33    17    39 1   
    34    18    19 ar  
    35    18    40 1   
    36    19    23 1   
    37    21    22 1   
    38    21    26 1   
    39    21    41 1   
    40    22    42 1   
    41    23    24 1   
    42    23    43 1   
    43    23    51 1   
    44    24    44 1   
    45    24    52 1   
    46    26    27 1   
    47    26    28 1   
    48    26    45 1   
    49    27    46 1   
    50    28    29 1   
    51    28    30 1   
    52    28    47 1   
    53    30    31 1   
    54    30    48 1   
    55    30    49 1   
    56    31    50 1   
@<TRIPOS>SUBSTRUCTURE
     1 SVS         1 TEMP              0 ****  ****    0 ROOT
