@<TRIPOS>MOLECULE
SVS
   53    56     1     0     0
SMALL
abcg2


@<TRIPOS>ATOM
      1 S           -2.5840    -1.8280    -1.3480 s6         1 SVS       1.182100
      2 N1           5.7140     2.4650    -0.7420 nb         1 SVS      -0.301000
      3 C2           5.9610     1.1670    -0.5930 ca         1 SVS       0.188900
      4 N3           5.1150     0.2000    -0.2820 nb         1 SVS      -0.217000
      5 C4           3.8790     0.6630    -0.1160 ca         1 SVS       0.147500
      6 C5           3.4680     1.9800    -0.2400 ca         1 SVS      -0.105600
      7 C6           4.4660     2.9160    -0.5720 ca         1 SVS       0.454900
      8 N6           4.2160     4.2170    -0.7170 nv         1 SVS      -1.063900
      9 N7           2.1220     2.0950    -0.0060 nc         1 SVS      -0.546100
     10 C8           1.7350     0.8840     0.2560 cd         1 SVS       0.397700
     11 N9           2.7500    -0.0350     0.2100 na         1 SVS      -0.290300
     12 C1           2.6620    -1.4560     0.4150 c5         1 SVS       0.315300
     13 C14         -4.5340     2.5240    -0.2990 ca         1 SVS       0.145100
     14 O14         -3.9750     2.6030    -1.5240 oh         1 SVS      -0.534100
     15 C15         -4.8340     3.6550     0.4550 ca         1 SVS      -0.204000
     16 C16         -5.4040     3.5230     1.7130 ca         1 SVS      -0.066000
     17 C17         -5.6790     2.2650     2.2270 ca         1 SVS      -0.147000
     18 C18         -5.3780     1.1430     1.4660 ca         1 SVS      -0.072000
     19 C19         -4.8100     1.2470     0.2020 ca         1 SVS      -0.115300
     20 O1P         -2.7560    -1.5890    -2.7730 o          1 SVS      -0.523500
     21 C7           2.1410    -1.8560     1.7950 c5         1 SVS       0.082300
     22 O2           3.1900    -1.8570     2.7140 oh         1 SVS      -0.690000
     23 C21         -4.4790     0.0130    -0.5930 c3         1 SVS       0.017900
     24 C22         -2.9930    -0.3220    -0.4690 c3         1 SVS      -0.341400
     25 O2P         -3.2990    -2.9290    -0.7180 o          1 SVS      -0.523500
     26 C3           1.5340    -3.2290     1.4960 c5         1 SVS       0.111300
     27 O3           2.5310    -4.2060     1.3690 oh         1 SVS      -0.698000
     28 C9           0.9200    -2.9800     0.1250 c5         1 SVS       0.164300
     29 O4           1.7650    -2.0130    -0.5090 os         1 SVS      -0.451000
     30 C10         -0.5000    -2.4500     0.2240 c3         1 SVS       0.185800
     31 N5          -0.9770    -2.0970    -1.1060 n7         1 SVS      -0.869300
     32 HN6          4.9520     4.8470    -0.9860 hn         1 SVS       0.507500
     33 HN6A         3.2840     4.5820    -0.6320 hn         1 SVS       0.507500
     34 H8           0.7190     0.6020     0.4880 h5         1 SVS       0.054800
     35 H1           3.6740    -1.8450     0.2670 h2         1 SVS       0.129700
     36 HO14        -3.8510     3.5250    -1.7790 ho         1 SVS       0.467000
     37 H15         -4.6210     4.6410     0.0580 ha         1 SVS       0.114000
     38 H16         -5.6310     4.4120     2.2880 ha         1 SVS       0.114000
     39 H17         -6.1270     2.1550     3.2060 ha         1 SVS       0.118000
     40 H18         -5.5940     0.1560     1.8590 ha         1 SVS       0.115000
     41 H2           1.3350    -1.1770     2.1020 h1         1 SVS       0.047700
     42 HO2          2.8260    -1.8230     3.6040 ho         1 SVS       0.517000
     43 H21         -5.0700    -0.8220    -0.2150 hc         1 SVS       0.068200
     44 H22         -2.7150    -0.4730     0.5750 h1         1 SVS       0.091200
     45 H3           0.7740    -3.5110     2.2370 h1         1 SVS       0.057700
     46 HO3          3.1180    -4.1360     2.1310 ho         1 SVS       0.525000
     47 H4           0.9180    -3.8870    -0.4840 h1         1 SVS       0.118700
     48 H5          -1.1310    -3.2430     0.6250 h1         1 SVS       0.053200
     49 H5'A        -0.5520    -1.6060     0.9230 h1         1 SVS       0.053200
     50 HN5         -0.3930    -1.4320    -1.6040 hn         1 SVS       0.499000
     51 H211        -4.7430     0.1450    -1.6430 hc         1 SVS       0.068200
     52 H221        -2.3650     0.4660    -0.8880 h1         1 SVS       0.091200
     53 H6           6.9920     0.8680    -0.7460 h5         1 SVS       0.049100
@<TRIPOS>BOND
     1     1    20 2   
     2     1    24 1   
     3     1    25 2   
     4     1    31 1   
     5     2     3 ar  
     6     2     7 ar  
     7     3     4 ar  
     8     3    53 1   
     9     4     5 ar  
    10     5     6 ar  
    11     5    11 1   
    12     6     7 ar  
    13     6     9 1   
    14     7     8 1   
    15     8    32 1   
    16     8    33 1   
    17     9    10 2   
    18    10    11 1   
    19    10    34 1   
    20    11    12 1   
    21    12    21 1   
    22    12    29 1   
    23    12    35 1   
    24    13    14 1   
    25    13    15 ar  
    26    13    19 ar  
    27    14    36 1   
    28    15    16 ar  
    29    15    37 1   
    30    16    17 ar  
    31    16    38 1   
    32    17    18 ar  
    33    17    39 1   
    34    18    19 ar  
    35    18    40 1   
    36    19    23 1   
    37    21    22 1   
    38    21    26 1   
    39    21    41 1   
    40    22    42 1   
    41    23    24 1   
    42    23    43 1   
    43    23    51 1   
    44    24    44 1   
    45    24    52 1   
    46    26    27 1   
    47    26    28 1   
    48    26    45 1   
    49    27    46 1   
    50    28    29 1   
    51    28    30 1   
    52    28    47 1   
    53    30    31 1   
    54    30    48 1   
    55    30    49 1   
    56    31    50 1   
@<TRIPOS>SUBSTRUCTURE
     1 SVS         1 TEMP              0 ****  ****    0 ROOT
