@<TRIPOS>MOLECULE
SVT
   19    20     1     0     0
SMALL
No Charge or Current Charge


@<TRIPOS>ATOM
      1 C1         194.7610   -32.3160    82.0210 ca         1 SVT       0.105100
      2 C2         195.8340   -33.2290    82.1840 ca         1 SVT      -0.096000
      3 C3         197.0190   -32.8420    82.8490 ca         1 SVT      -0.096000
      4 C7         196.5060   -29.4260    83.8040 cc         1 SVT       0.341800
      5 C          192.4890   -31.9160    81.1430 c3         1 SVT       0.147900
      6 O          193.6330   -32.7620    81.3610 os         1 SVT      -0.343100
      7 C6         194.8710   -30.9940    82.5280 ca         1 SVT      -0.135000
      8 C5         196.0630   -30.6500    83.1820 ca         1 SVT      -0.194900
      9 N          197.7430   -29.5480    84.3160 nd         1 SVT      -0.514100
     10 N1         198.0910   -30.8730    84.0120 na         1 SVT      -0.058400
     11 C4         197.0860   -31.5310    83.3340 ca         1 SVT      -0.073200
     12 H1         195.7420   -34.2390    81.7930 ha         1 SVT       0.128000
     13 H2         197.8460   -33.5370    82.9770 ha         1 SVT       0.122000
     14 H3         196.0110   -28.4700    83.9140 h4         1 SVT       0.048800
     15 H4         191.7080   -32.4660    80.6030 h1         1 SVT       0.039700
     16 H5         192.0670   -31.5760    82.0970 h1         1 SVT       0.039700
     17 H6         192.7620   -31.0380    80.5450 h1         1 SVT       0.039700
     18 H7         194.0740   -30.2620    82.4260 ha         1 SVT       0.123000
     19 H8         198.9940   -31.2640    84.2800 hn         1 SVT       0.375000
@<TRIPOS>BOND
     1     1     2 ar  
     2     1     6 1   
     3     1     7 ar  
     4     2     3 ar  
     5     2    12 1   
     6     3    11 ar  
     7     3    13 1   
     8     4     8 1   
     9     4     9 2   
    10     4    14 1   
    11     5     6 1   
    12     5    15 1   
    13     5    16 1   
    14     5    17 1   
    15     7     8 ar  
    16     7    18 1   
    17     8    11 ar  
    18     9    10 1   
    19    10    11 1   
    20    10    19 1   
@<TRIPOS>SUBSTRUCTURE
     1 SVT         1 TEMP              0 ****  ****    0 ROOT
