@<TRIPOS>MOLECULE
SVT
   19    20     1     0     0
SMALL
abcg2


@<TRIPOS>ATOM
      1 C1         194.7490   -32.2700    82.0270 ca         1 SVT       0.105100
      2 C2         195.8190   -33.1880    82.1900 ca         1 SVT      -0.096000
      3 C3         196.9810   -32.8440    82.8320 ca         1 SVT      -0.096000
      4 C7         196.5120   -29.4390    83.8010 cc         1 SVT       0.341800
      5 C          192.5640   -31.9210    81.1780 c3         1 SVT       0.147900
      6 O          193.6760   -32.7680    81.3740 os         1 SVT      -0.343100
      7 C6         194.8410   -30.9830    82.5140 ca         1 SVT      -0.135000
      8 C5         196.0280   -30.6180    83.1740 ca         1 SVT      -0.194900
      9 N          197.7200   -29.6270    84.2800 nd         1 SVT      -0.514100
     10 N1         198.0560   -30.8830    83.9960 na         1 SVT      -0.058400
     11 C4         197.0750   -31.5370    83.3270 ca         1 SVT      -0.073200
     12 H1         195.7030   -34.1870    81.7890 ha         1 SVT       0.128000
     13 H2         197.7850   -33.5590    82.9460 ha         1 SVT       0.122000
     14 H3         196.0220   -28.4840    83.9090 h4         1 SVT       0.048800
     15 H4         191.8190   -32.5030    80.6410 h1         1 SVT       0.039700
     16 H5         192.1330   -31.5870    82.1260 h1         1 SVT       0.039700
     17 H6         192.8200   -31.0410    80.5820 h1         1 SVT       0.039700
     18 H7         194.0430   -30.2620    82.4030 ha         1 SVT       0.123000
     19 H8         198.9540   -31.2370    84.2790 hn         1 SVT       0.375000
@<TRIPOS>BOND
     1     1     2 ar  
     2     1     6 1   
     3     1     7 ar  
     4     2     3 ar  
     5     2    12 1   
     6     3    11 ar  
     7     3    13 1   
     8     4     8 1   
     9     4     9 2   
    10     4    14 1   
    11     5     6 1   
    12     5    15 1   
    13     5    16 1   
    14     5    17 1   
    15     7     8 ar  
    16     7    18 1   
    17     8    11 ar  
    18     9    10 1   
    19    10    11 1   
    20    10    19 1   
@<TRIPOS>SUBSTRUCTURE
     1 SVT         1 TEMP              0 ****  ****    0 ROOT
