@<TRIPOS>MOLECULE
SVU
   23    23     1     0     0
SMALL
No Charge or Current Charge


@<TRIPOS>ATOM
      1 N1         -10.1100    -5.9480   -17.8260 n7         1 SVU      -0.853400
      2 C4         -11.6060    -5.7950   -19.8350 cc         1 SVU       0.209300
      3 C5         -10.1960    -6.0170   -19.3110 c3         1 SVU       0.128500
      4 C6         -10.4010    -4.6270   -17.2310 c3         1 SVU       0.140100
      5 N          -13.6570    -6.0200   -20.3190 na         1 SVU       0.117800
      6 C          -15.9360    -6.1820   -19.2700 c3         1 SVU      -0.111100
      7 C1         -14.9870    -6.6480   -20.3910 c3         1 SVU       0.090600
      8 C2         -13.3080    -4.7640   -20.8260 cd         1 SVU      -0.166000
      9 C3         -11.9910    -4.6280   -20.5110 cc         1 SVU      -0.223000
     10 N2         -12.5910    -6.6640   -19.6990 nd         1 SVU      -0.525800
     11 H1         -10.7910    -6.6230   -17.4490 hn         1 SVU       0.411000
     12 H3          -9.8600    -7.0030   -19.6610 h1         1 SVU       0.063200
     13 H4          -9.5270    -5.2760   -19.7710 h1         1 SVU       0.063200
     14 H5         -10.2960    -4.6650   -16.1380 h1         1 SVU       0.030700
     15 H6          -9.7090    -3.8650   -17.6130 h1         1 SVU       0.030700
     16 H7         -11.4260    -4.3070   -17.4610 h1         1 SVU       0.030700
     17 H8         -16.9110    -6.6740   -19.3660 hc         1 SVU       0.049367
     18 H9         -15.5210    -6.4290   -18.2850 hc         1 SVU       0.049367
     19 H10        -16.0910    -5.0980   -19.3200 hc         1 SVU       0.049367
     20 H11        -15.4310    -6.4080   -21.3650 h1         1 SVU       0.060700
     21 H12        -14.8680    -7.7370   -20.3370 h1         1 SVU       0.060700
     22 H13        -14.0010    -4.1080   -21.3410 h4         1 SVU       0.151000
     23 H14        -11.3450    -3.7830   -20.7300 ha         1 SVU       0.144000
@<TRIPOS>BOND
     1     1     3 1   
     2     1     4 1   
     3     1    11 1   
     4     2     3 1   
     5     2     9 1   
     6     2    10 2   
     7     3    12 1   
     8     3    13 1   
     9     4    14 1   
    10     4    15 1   
    11     4    16 1   
    12     5     7 1   
    13     5     8 1   
    14     5    10 1   
    15     6     7 1   
    16     6    17 1   
    17     6    18 1   
    18     6    19 1   
    19     7    20 1   
    20     7    21 1   
    21     8     9 2   
    22     8    22 1   
    23     9    23 1   
@<TRIPOS>SUBSTRUCTURE
     1 SVU         1 TEMP              0 ****  ****    0 ROOT
