@<TRIPOS>MOLECULE
SVU
   23    23     1     0     0
SMALL
abcg2


@<TRIPOS>ATOM
      1 N1         -10.2740    -5.8960   -17.7090 n7         1 SVU      -0.853400
      2 C4         -11.6510    -5.7740   -19.8060 cc         1 SVU       0.209300
      3 C5         -10.3630    -6.1790   -19.1490 c3         1 SVU       0.128500
      4 C6         -10.3210    -4.4730   -17.3810 c3         1 SVU       0.140100
      5 N          -13.6990    -5.9220   -20.4110 na         1 SVU       0.117800
      6 C          -15.7900    -6.4690   -19.2030 c3         1 SVU      -0.111100
      7 C1         -15.0290    -6.5050   -20.5220 c3         1 SVU       0.090600
      8 C2         -13.2980    -4.7010   -20.8270 cd         1 SVU      -0.166000
      9 C3         -11.9740    -4.5650   -20.4570 cc         1 SVU      -0.223000
     10 N2         -12.7090    -6.5900   -19.7850 nd         1 SVU      -0.525800
     11 H1         -11.0380    -6.3720   -17.2400 hn         1 SVU       0.411000
     12 H3         -10.2170    -7.2520   -19.2880 h1         1 SVU       0.063200
     13 H4          -9.5320    -5.6670   -19.6400 h1         1 SVU       0.063200
     14 H5         -10.2670    -4.3520   -16.2990 h1         1 SVU       0.030700
     15 H6          -9.4560    -3.9730   -17.8230 h1         1 SVU       0.030700
     16 H7         -11.2230    -3.9590   -17.7400 h1         1 SVU       0.030700
     17 H8         -16.7780    -6.9120   -19.3350 hc         1 SVU       0.049367
     18 H9         -15.2590    -7.0340   -18.4360 hc         1 SVU       0.049367
     19 H10        -15.9150    -5.4420   -18.8570 hc         1 SVU       0.049367
     20 H11        -15.5560    -5.9410   -21.2900 h1         1 SVU       0.060700
     21 H12        -14.9130    -7.5300   -20.8750 h1         1 SVU       0.060700
     22 H13        -13.9700    -4.0390   -21.3490 h4         1 SVU       0.151000
     23 H14        -11.3280    -3.7210   -20.6350 ha         1 SVU       0.144000
@<TRIPOS>BOND
     1     1     3 1   
     2     1     4 1   
     3     1    11 1   
     4     2     3 1   
     5     2     9 1   
     6     2    10 2   
     7     3    12 1   
     8     3    13 1   
     9     4    14 1   
    10     4    15 1   
    11     4    16 1   
    12     5     7 1   
    13     5     8 1   
    14     5    10 1   
    15     6     7 1   
    16     6    17 1   
    17     6    18 1   
    18     6    19 1   
    19     7    20 1   
    20     7    21 1   
    21     8     9 2   
    22     8    22 1   
    23     9    23 1   
@<TRIPOS>SUBSTRUCTURE
     1 SVU         1 TEMP              0 ****  ****    0 ROOT
