@<TRIPOS>MOLECULE
SW0
   25    26     1     0     0
SMALL
No Charge or Current Charge


@<TRIPOS>ATOM
      1 C10         28.4370   -11.3970     4.5350 ca         1 SW0      -0.110000
      2 N12         28.4300    -7.3360     8.9730 nc         1 SW0      -0.285300
      3 C15         31.1280    -8.8930    10.9850 c3         1 SW0      -0.138400
      4 C02         28.1900    -8.4860     6.7900 c          1 SW0       0.528600
      5 C04         28.4860   -10.0070     4.7570 ca         1 SW0      -0.082000
      6 C05         28.3270    -9.1300     3.6570 ca         1 SW0       0.180000
      7 C07         28.0910    -9.6420     2.3700 ca         1 SW0      -0.137000
      8 C08         28.0180   -11.0300     2.1640 ca         1 SW0      -0.089000
      9 C09         28.1970   -11.9060     3.2470 ca         1 SW0      -0.112000
     10 C11         28.8260    -8.2920     8.1390 cd         1 SW0       0.219500
     11 C14         30.1330    -8.5230     9.9260 cc         1 SW0       0.198300
     12 C16         29.8850    -9.0490     8.7000 cd         1 SW0      -0.244000
     13 F06         28.4580    -7.7920     3.8050 f          1 SW0      -0.165000
     14 N03         28.7360    -9.5510     6.0810 ns         1 SW0      -0.152000
     15 O01         27.2660    -7.7980     6.3600 o          1 SW0      -0.531100
     16 O13         29.2720    -7.4780    10.1370 os         1 SW0      -0.086700
     17 H101        28.5740   -12.0870     5.3660 ha         1 SW0       0.118000
     18 H151        30.6190    -9.1680    11.9160 hc         1 SW0       0.066367
     19 H153        31.7400    -9.7450    10.6670 hc         1 SW0       0.066367
     20 H152        31.7990    -8.0520    11.1970 hc         1 SW0       0.066367
     21 H071        27.9750    -8.9600     1.5310 ha         1 SW0       0.136000
     22 H081        27.8360   -11.4250     1.1660 ha         1 SW0       0.121000
     23 H091        28.1510   -12.9810     3.0880 ha         1 SW0       0.121000
     24 H161        30.4080    -9.8870     8.2540 ha         1 SW0       0.151000
     25 H031        29.4330   -10.0860     6.5820 hn         1 SW0       0.160000
@<TRIPOS>BOND
     1     1     5 ar  
     2     1     9 ar  
     3     1    17 1   
     4     2    10 2   
     5     2    16 1   
     6     3    11 1   
     7     3    18 1   
     8     3    19 1   
     9     3    20 1   
    10     4    10 1   
    11     4    14 1   
    12     4    15 2   
    13     5     6 ar  
    14     5    14 1   
    15     6     7 ar  
    16     6    13 1   
    17     7     8 ar  
    18     7    21 1   
    19     8     9 ar  
    20     8    22 1   
    21     9    23 1   
    22    10    12 1   
    23    11    12 2   
    24    11    16 1   
    25    12    24 1   
    26    14    25 1   
@<TRIPOS>SUBSTRUCTURE
     1 SW0         1 TEMP              0 ****  ****    0 ROOT
