@<TRIPOS>MOLECULE
SW0
   25    26     1     0     0
SMALL
abcg2


@<TRIPOS>ATOM
      1 C10         28.2280   -11.4430     4.4630 ca         1 SW0      -0.110000
      2 N12         28.2380    -7.8140     8.9670 nc         1 SW0      -0.285300
      3 C15         31.0760    -8.5980    11.0790 c3         1 SW0      -0.138400
      4 C02         28.3520    -8.7470     6.7440 c          1 SW0       0.528600
      5 C04         28.5700   -10.1190     4.7320 ca         1 SW0      -0.082000
      6 C05         28.5520    -9.2090     3.6790 ca         1 SW0       0.180000
      7 C07         28.1760    -9.5740     2.4000 ca         1 SW0      -0.137000
      8 C08         27.8310   -10.8980     2.1510 ca         1 SW0      -0.089000
      9 C09         27.8670   -11.8340     3.1800 ca         1 SW0      -0.112000
     10 C11         28.9210    -8.5370     8.1110 cd         1 SW0       0.219500
     11 C14         30.1330    -8.5110     9.9410 cc         1 SW0       0.198300
     12 C16         30.1370    -9.0070     8.6770 cd         1 SW0      -0.244000
     13 F06         28.9430    -7.9350     3.9010 f          1 SW0      -0.165000
     14 N03         28.9630    -9.7330     6.0340 ns         1 SW0      -0.152000
     15 O01         27.4210    -8.0800     6.3190 o          1 SW0      -0.531100
     16 O13         29.0000    -7.7960    10.1270 os         1 SW0      -0.086700
     17 H101        28.2440   -12.1580     5.2760 ha         1 SW0       0.118000
     18 H151        30.5890    -9.0510    11.9450 hc         1 SW0       0.066367
     19 H153        31.9340    -9.2060    10.7990 hc         1 SW0       0.066367
     20 H152        31.4230    -7.6040    11.3680 hc         1 SW0       0.066367
     21 H071        28.1740    -8.8280     1.6170 ha         1 SW0       0.136000
     22 H081        27.5410   -11.1950     1.1520 ha         1 SW0       0.121000
     23 H091        27.6040   -12.8650     2.9880 ha         1 SW0       0.121000
     24 H161        30.9090    -9.6020     8.2200 ha         1 SW0       0.151000
     25 H031        29.5900   -10.3570     6.5200 hn         1 SW0       0.160000
@<TRIPOS>BOND
     1     1     5 ar  
     2     1     9 ar  
     3     1    17 1   
     4     2    10 2   
     5     2    16 1   
     6     3    11 1   
     7     3    18 1   
     8     3    19 1   
     9     3    20 1   
    10     4    10 1   
    11     4    14 1   
    12     4    15 2   
    13     5     6 ar  
    14     5    14 1   
    15     6     7 ar  
    16     6    13 1   
    17     7     8 ar  
    18     7    21 1   
    19     8     9 ar  
    20     8    22 1   
    21     9    23 1   
    22    10    12 1   
    23    11    12 2   
    24    11    16 1   
    25    12    24 1   
    26    14    25 1   
@<TRIPOS>SUBSTRUCTURE
     1 SW0         1 TEMP              0 ****  ****    0 ROOT
