@<TRIPOS>MOLECULE
SW1
   20    21     1     0     0
SMALL
No Charge or Current Charge


@<TRIPOS>ATOM
      1 C1          -3.4230     1.0040    -0.3980 c3         1 SW1       0.125500
      2 N1          -3.7240     1.7850     0.8360 n8         1 SW1      -0.988200
      3 S1          -0.7650    -2.0640    -0.0350 ss         1 SW1      -0.011400
      4 C2          -2.2470     0.0440    -0.2610 cc         1 SW1       0.305300
      5 N2          -0.9700     0.5530    -0.1950 nc         1 SW1      -0.659000
      6 S2           2.0230     1.4560    -0.0230 ss         1 SW1       0.291000
      7 C3          -2.3460    -1.3240    -0.1930 cd         1 SW1      -0.264000
      8 C4          -0.0930    -0.4330    -0.0740 cd         1 SW1       0.521900
      9 C5           1.3160    -0.1660     0.0150 cd         1 SW1      -0.276500
     10 C6           2.2640    -1.1530     0.1390 cc         1 SW1      -0.115000
     11 C7           3.5800    -0.6330     0.2070 cc         1 SW1      -0.133000
     12 C8           3.6400     0.7370     0.1360 cd         1 SW1      -0.256000
     13 H1          -4.3200     0.4360    -0.6800 h1         1 SW1       0.039200
     14 H1A         -3.2060     1.7100    -1.2120 h1         1 SW1       0.039200
     15 HN1         -2.8940     2.3420     1.0770 hn         1 SW1       0.399500
     16 HN1A        -4.4400     2.4920     0.6240 hn         1 SW1       0.399500
     17 H3          -3.2440    -1.9280    -0.2230 h4         1 SW1       0.161000
     18 H6           2.0630    -2.2200     0.1840 ha         1 SW1       0.135000
     19 H7           4.4510    -1.2760     0.3070 ha         1 SW1       0.135000
     20 H8           4.5160     1.3730     0.1650 h4         1 SW1       0.150000
@<TRIPOS>BOND
     1     1     2 1   
     2     1     4 1   
     3     1    13 1   
     4     1    14 1   
     5     2    15 1   
     6     2    16 1   
     7     3     7 1   
     8     3     8 1   
     9     4     5 1   
    10     4     7 2   
    11     5     8 2   
    12     6     9 1   
    13     6    12 1   
    14     7    17 1   
    15     8     9 1   
    16     9    10 2   
    17    10    11 1   
    18    10    18 1   
    19    11    12 2   
    20    11    19 1   
    21    12    20 1   
@<TRIPOS>SUBSTRUCTURE
     1 SW1         1 TEMP              0 ****  ****    0 ROOT
