@<TRIPOS>MOLECULE
SW1
   20    21     1     0     0
SMALL
abcg2


@<TRIPOS>ATOM
      1 C1          -3.4110     0.9990    -0.3590 c3         1 SW1       0.125500
      2 N1          -3.4300     1.8650     0.8130 n8         1 SW1      -0.988200
      3 S1          -0.8440    -2.0580    -0.1460 ss         1 SW1      -0.011400
      4 C2          -2.2840     0.0200    -0.2660 cc         1 SW1       0.305300
      5 N2          -1.0050     0.4880    -0.1660 nc         1 SW1      -0.659000
      6 S2           1.8910     1.3460     0.0570 ss         1 SW1       0.291000
      7 C3          -2.3950    -1.3350    -0.2700 cd         1 SW1      -0.264000
      8 C4          -0.1420    -0.4780    -0.0900 cd         1 SW1       0.521900
      9 C5           1.2810    -0.2670     0.0280 cd         1 SW1      -0.276500
     10 C6           2.2940    -1.1820     0.1310 cc         1 SW1      -0.115000
     11 C7           3.5690    -0.5740     0.2350 cc         1 SW1      -0.133000
     12 C8           3.5010     0.7870     0.2080 cd         1 SW1      -0.256000
     13 H1          -4.3520     0.4510    -0.4080 h1         1 SW1       0.039200
     14 H1A         -3.3180     1.5450    -1.3080 h1         1 SW1       0.039200
     15 HN1         -2.6070     2.4540     0.7990 hn         1 SW1       0.399500
     16 HN1A        -4.2200     2.4940     0.7410 hn         1 SW1       0.399500
     17 H3          -3.2890    -1.9350    -0.3370 h4         1 SW1       0.161000
     18 H6           2.1380    -2.2530     0.1340 ha         1 SW1       0.135000
     19 H7           4.4920    -1.1260     0.3290 ha         1 SW1       0.135000
     20 H8           4.3140     1.4930     0.2720 h4         1 SW1       0.150000
@<TRIPOS>BOND
     1     1     2 1   
     2     1     4 1   
     3     1    13 1   
     4     1    14 1   
     5     2    15 1   
     6     2    16 1   
     7     3     7 1   
     8     3     8 1   
     9     4     5 1   
    10     4     7 2   
    11     5     8 2   
    12     6     9 1   
    13     6    12 1   
    14     7    17 1   
    15     8     9 1   
    16     9    10 2   
    17    10    11 1   
    18    10    18 1   
    19    11    12 2   
    20    11    19 1   
    21    12    20 1   
@<TRIPOS>SUBSTRUCTURE
     1 SW1         1 TEMP              0 ****  ****    0 ROOT
