@<TRIPOS>MOLECULE
SW2
   25    26     1     0     0
SMALL
No Charge or Current Charge


@<TRIPOS>ATOM
      1 C1          -3.1690     0.9680    -0.6300 c3         1 SW2       0.195100
      2 N1          -3.7850     1.5680     0.5700 n8         1 SW2      -0.998200
      3 C2          -2.0290     0.0250    -0.2640 ca         1 SW2      -0.069300
      4 N2           1.6940     0.0630     0.0120 na         1 SW2       0.117200
      5 C3          -2.3010    -1.3090     0.0930 ca         1 SW2      -0.091000
      6 C4          -1.2500    -2.1820     0.4200 ca         1 SW2      -0.099000
      7 C5           0.0790    -1.7270     0.3940 ca         1 SW2      -0.122000
      8 C6           0.3700    -0.3920     0.0390 ca         1 SW2       0.006800
      9 C7           2.7670    -0.7110    -0.4250 cc         1 SW2      -0.190000
     10 C8           3.8560     0.1090    -0.2850 cd         1 SW2      -0.177000
     11 C9           3.4370     1.3590     0.2310 cd         1 SW2      -0.177000
     12 C10          2.0800     1.3390     0.4200 cc         1 SW2      -0.190000
     13 C11         -0.6940     0.4770    -0.2880 ca         1 SW2      -0.125000
     14 H1          -3.9400     0.4190    -1.1880 h1         1 SW2       0.036700
     15 H1A         -2.7920     1.7740    -1.2760 h1         1 SW2       0.036700
     16 HN1         -3.0750     2.1270     1.0570 hn         1 SW2       0.398500
     17 HN1A        -4.4820     2.2620     0.2740 hn         1 SW2       0.398500
     18 H3          -3.3280    -1.6680     0.1170 ha         1 SW2       0.134000
     19 H4          -1.4670    -3.2120     0.6980 ha         1 SW2       0.118000
     20 H5           0.8800    -2.4130     0.6600 ha         1 SW2       0.125000
     21 H7           2.6690    -1.7260    -0.7890 h4         1 SW2       0.145500
     22 H8           4.8790    -0.1590    -0.5340 ha         1 SW2       0.132000
     23 H9           4.0870     2.2030     0.4450 ha         1 SW2       0.132000
     24 H10          1.3920     2.0830     0.8010 h4         1 SW2       0.145500
     25 H11         -0.4860     1.5050    -0.5740 ha         1 SW2       0.120000
@<TRIPOS>BOND
     1     1     2 1   
     2     1     3 1   
     3     1    14 1   
     4     1    15 1   
     5     2    16 1   
     6     2    17 1   
     7     3     5 ar  
     8     3    13 ar  
     9     4     8 1   
    10     4     9 1   
    11     4    12 1   
    12     5     6 ar  
    13     5    18 1   
    14     6     7 ar  
    15     6    19 1   
    16     7     8 ar  
    17     7    20 1   
    18     8    13 ar  
    19     9    10 2   
    20     9    21 1   
    21    10    11 1   
    22    10    22 1   
    23    11    12 2   
    24    11    23 1   
    25    12    24 1   
    26    13    25 1   
@<TRIPOS>SUBSTRUCTURE
     1 SW2         1 TEMP              0 ****  ****    0 ROOT
