@<TRIPOS>MOLECULE
SW2
   25    26     1     0     0
SMALL
bcc


@<TRIPOS>ATOM
      1 C1          -3.0520     1.1450    -0.5740 c3         1 SW2       0.195100
      2 N1          -4.1440     1.1250     0.3840 n8         1 SW2      -0.887800
      3 C2          -1.9670     0.1680    -0.1970 ca         1 SW2      -0.069300
      4 N2           1.7280     0.0480    -0.0280 na         1 SW2       0.015800
      5 C3          -2.2820    -1.1290     0.2050 ca         1 SW2      -0.109000
      6 C4          -1.2730    -2.0290     0.5100 ca         1 SW2      -0.117000
      7 C5           0.0610    -1.6510     0.4410 ca         1 SW2      -0.140000
      8 C6           0.3810    -0.3590     0.0420 ca         1 SW2       0.006800
      9 C7           2.7800    -0.7450    -0.4040 cc         1 SW2      -0.157300
     10 C8           3.9240     0.0020    -0.3390 cd         1 SW2      -0.195000
     11 C9           3.5550     1.3010     0.1000 cd         1 SW2      -0.195000
     12 C10          2.1980     1.2980     0.2800 cc         1 SW2      -0.157300
     13 C11         -0.6320     0.5400    -0.2800 ca         1 SW2      -0.143000
     14 H1          -3.4560     0.8560    -1.5480 h1         1 SW2       0.036700
     15 H1A         -2.6000     2.1350    -0.7170 h1         1 SW2       0.036700
     16 HN1         -3.8390     1.5480     1.2520 hn         1 SW2       0.343300
     17 HN1A        -4.9000     1.7030     0.0410 hn         1 SW2       0.343300
     18 H3          -3.3190    -1.4290     0.2830 ha         1 SW2       0.152000
     19 H4          -1.5230    -3.0340     0.8220 ha         1 SW2       0.136000
     20 H5           0.8390    -2.3510     0.7160 ha         1 SW2       0.143000
     21 H7           2.6260    -1.7640    -0.7190 h4         1 SW2       0.163500
     22 H8           4.9160    -0.3430    -0.5860 ha         1 SW2       0.150000
     23 H9           4.2120     2.1380     0.2750 ha         1 SW2       0.150000
     24 H10          1.5370     2.0720     0.6330 h4         1 SW2       0.163500
     25 H11         -0.3770     1.5390    -0.6130 ha         1 SW2       0.138000
@<TRIPOS>BOND
     1     1     2 1   
     2     1     3 1   
     3     1    14 1   
     4     1    15 1   
     5     2    16 1   
     6     2    17 1   
     7     3     5 ar  
     8     3    13 ar  
     9     4     8 1   
    10     4     9 1   
    11     4    12 1   
    12     5     6 ar  
    13     5    18 1   
    14     6     7 ar  
    15     6    19 1   
    16     7     8 ar  
    17     7    20 1   
    18     8    13 ar  
    19     9    10 2   
    20     9    21 1   
    21    10    11 1   
    22    10    22 1   
    23    11    12 2   
    24    11    23 1   
    25    12    24 1   
    26    13    25 1   
@<TRIPOS>SUBSTRUCTURE
     1 SW2         1 TEMP              0 ****  ****    0 ROOT
