@<TRIPOS>MOLECULE
SW3
   20    20     1     0     0
SMALL
No Charge or Current Charge


@<TRIPOS>ATOM
      1 C1           2.4230     1.5910    -0.2060 c3         1 SW3      -0.028800
      2 N1          -3.1640     0.1510    -0.8950 n8         1 SW3      -0.984200
      3 C2           1.1790     0.7590    -0.0400 cc         1 SW3      -0.140300
      4 N2          -0.1600    -1.1270     0.1920 nc         1 SW3      -0.500800
      5 C3          -0.1270     1.1370     0.0710 cd         1 SW3      -0.230000
      6 N3           1.1220    -0.6330     0.0370 na         1 SW3       0.131800
      7 C4          -0.9020    -0.0330     0.2080 cd         1 SW3       0.249300
      8 C5          -2.4160    -0.0980     0.3700 c3         1 SW3       0.124500
      9 C6           2.2660    -1.5570    -0.0300 c3         1 SW3       0.070900
     10 H1           3.1170     1.4270     0.6260 hc         1 SW3       0.049033
     11 H1A          2.9420     1.3370    -1.1380 hc         1 SW3       0.049033
     12 H1B          2.1800     2.6600    -0.2370 hc         1 SW3       0.049033
     13 HN1         -4.1710     0.1760    -0.6930 hn         1 SW3       0.390000
     14 HN1A        -2.9570     1.1010    -1.2270 hn         1 SW3       0.390000
     15 H3          -0.5050     2.1540     0.0590 ha         1 SW3       0.139000
     16 H5          -2.7220     0.6540     1.1110 h1         1 SW3       0.038700
     17 H5A         -2.7010    -1.0860     0.7580 h1         1 SW3       0.038700
     18 H6           2.9590    -1.3380     0.7910 h1         1 SW3       0.054367
     19 H6A          1.9200    -2.5940     0.0570 h1         1 SW3       0.054367
     20 H6B          2.7830    -1.4270    -0.9870 h1         1 SW3       0.054367
@<TRIPOS>BOND
     1     1     3 1   
     2     1    10 1   
     3     1    11 1   
     4     1    12 1   
     5     2     8 1   
     6     2    13 1   
     7     2    14 1   
     8     3     5 2   
     9     3     6 1   
    10     4     6 1   
    11     4     7 2   
    12     5     7 1   
    13     5    15 1   
    14     6     9 1   
    15     7     8 1   
    16     8    16 1   
    17     8    17 1   
    18     9    18 1   
    19     9    19 1   
    20     9    20 1   
@<TRIPOS>SUBSTRUCTURE
     1 SW3         1 TEMP              0 ****  ****    0 ROOT
