@<TRIPOS>MOLECULE
SW3
   20    20     1     0     0
SMALL
abcg2


@<TRIPOS>ATOM
      1 C1           2.4470     1.5230    -0.2220 c3         1 SW3      -0.028800
      2 N1          -3.0600    -0.1570    -0.8410 n8         1 SW3      -0.984200
      3 C2           1.1660     0.7900    -0.0380 cc         1 SW3      -0.140300
      4 N2          -0.1720    -0.9850     0.1790 nc         1 SW3      -0.500800
      5 C3          -0.1180     1.2560     0.1480 cd         1 SW3      -0.230000
      6 N3           1.0750    -0.5570    -0.0170 na         1 SW3       0.131800
      7 C4          -0.9130     0.1040     0.2770 cd         1 SW3       0.249300
      8 C5          -2.3960     0.0300     0.4460 c3         1 SW3       0.124500
      9 C6           2.1560    -1.5080    -0.0900 c3         1 SW3       0.070900
     10 H1           3.1540     1.3200     0.5850 hc         1 SW3       0.049033
     11 H1A          2.9370     1.2600    -1.1610 hc         1 SW3       0.049033
     12 H1B          2.2590     2.5940    -0.2340 hc         1 SW3       0.049033
     13 HN1         -4.0610    -0.2020    -0.6890 hn         1 SW3       0.390000
     14 HN1A        -2.9110     0.6630    -1.4150 hn         1 SW3       0.390000
     15 H3          -0.4330     2.2870     0.1850 ha         1 SW3       0.139000
     16 H5          -2.7280     0.9280     0.9840 h1         1 SW3       0.038700
     17 H5A         -2.6440    -0.8230     1.0810 h1         1 SW3       0.038700
     18 H6           2.5010    -1.7950     0.9040 h1         1 SW3       0.054367
     19 H6A          1.8170    -2.3960    -0.6180 h1         1 SW3       0.054367
     20 H6B          2.9900    -1.0790    -0.6370 h1         1 SW3       0.054367
@<TRIPOS>BOND
     1     1     3 1   
     2     1    10 1   
     3     1    11 1   
     4     1    12 1   
     5     2     8 1   
     6     2    13 1   
     7     2    14 1   
     8     3     5 2   
     9     3     6 1   
    10     4     6 1   
    11     4     7 2   
    12     5     7 1   
    13     5    15 1   
    14     6     9 1   
    15     7     8 1   
    16     8    16 1   
    17     8    17 1   
    18     9    18 1   
    19     9    19 1   
    20     9    20 1   
@<TRIPOS>SUBSTRUCTURE
     1 SW3         1 TEMP              0 ****  ****    0 ROOT
