@<TRIPOS>MOLECULE
SW4
   38    40     1     0     0
SMALL
No Charge or Current Charge


@<TRIPOS>ATOM
      1 O01          6.9040    -2.0980     0.3530 oh         1 SW4      -0.663000
      2 C02          6.1190    -0.9060     0.4690 c3         1 SW4       0.164600
      3 C03          4.6620    -1.1950     0.0570 c3         1 SW4      -0.054400
      4 C04          3.7630     0.0340     0.1660 cx         1 SW4      -0.110700
      5 C05          3.6940     1.0500    -0.9480 cx         1 SW4      -0.120400
      6 C06          2.5050     0.1530    -0.6670 cx         1 SW4      -0.079400
      7 C07          1.2130     0.6820    -0.0920 ca         1 SW4      -0.056300
      8 C08          1.1870     1.7470     0.8410 ca         1 SW4       0.296900
      9 N09          0.0460     2.2450     1.3760 nb         1 SW4      -0.639000
     10 C10         -1.1270     1.6850     0.9900 ca         1 SW4       0.247900
     11 C11         -1.2070     0.6150     0.0630 ca         1 SW4       0.103100
     12 O12         -2.4030     0.0430    -0.3310 os         1 SW4      -0.338100
     13 C13         -3.6690     0.5060     0.1800 c3         1 SW4       0.176600
     14 C14         -4.7930    -0.3430    -0.4560 cy         1 SW4       0.140500
     15 C15         -6.2620    -0.1420     0.0430 cy         1 SW4      -0.103400
     16 C16         -6.4340    -1.6580    -0.2880 cy         1 SW4       0.134800
     17 N17         -4.9770    -1.7510     0.0400 n6         1 SW4      -0.840400
     18 C18         -0.0150     0.1110    -0.4820 ca         1 SW4      -0.114000
     19 H01          7.8190    -1.8640     0.6250 ho         1 SW4       0.443000
     20 H021         6.1360    -0.5390     1.5040 h1         1 SW4       0.017700
     21 H022         6.5280    -0.1170    -0.1760 h1         1 SW4       0.017700
     22 H031         4.6540    -1.5800    -0.9710 hc         1 SW4       0.057200
     23 H032         4.2610    -1.9930     0.6930 hc         1 SW4       0.057200
     24 H04          3.7210     0.4200     1.1820 hc         1 SW4       0.081700
     25 H051         3.6270     2.1000    -0.6740 hc         1 SW4       0.075700
     26 H052         4.2660     0.8580    -1.8530 hc         1 SW4       0.075700
     27 H06          2.3330    -0.6400    -1.3930 hc         1 SW4       0.085700
     28 H08          2.1080     2.2220     1.1750 h4         1 SW4       0.018100
     29 H18         -0.0490    -0.7090    -1.1940 ha         1 SW4       0.131000
     30 H10         -2.0190     2.1140     1.4430 h4         1 SW4       0.021100
     31 H131        -3.7180     0.3990     1.2710 h1         1 SW4       0.045200
     32 H132        -3.8370     1.5580    -0.0830 h1         1 SW4       0.045200
     33 H14         -4.7270    -0.2590    -1.5490 h1         1 SW4       0.050700
     34 H151        -6.3590     0.1060     1.1070 hc         1 SW4       0.059700
     35 H152        -6.8780     0.5500    -0.5410 hc         1 SW4       0.059700
     36 H17         -4.4410    -2.4930    -0.4280 hn         1 SW4       0.416000
     37 H161        -7.1230    -2.2010     0.3700 h1         1 SW4       0.048700
     38 H162        -6.6920    -1.8450    -1.3390 h1         1 SW4       0.048700
@<TRIPOS>BOND
     1     1     2 1   
     2     1    19 1   
     3     2     3 1   
     4     2    20 1   
     5     2    21 1   
     6     3     4 1   
     7     3    22 1   
     8     3    23 1   
     9     4     5 1   
    10     4     6 1   
    11     4    24 1   
    12     5     6 1   
    13     5    25 1   
    14     5    26 1   
    15     6     7 1   
    16     6    27 1   
    17     7     8 ar  
    18     7    18 ar  
    19     8     9 ar  
    20     8    28 1   
    21     9    10 ar  
    22    10    11 ar  
    23    10    30 1   
    24    11    12 1   
    25    11    18 ar  
    26    12    13 1   
    27    13    14 1   
    28    13    31 1   
    29    13    32 1   
    30    14    15 1   
    31    14    17 1   
    32    14    33 1   
    33    15    16 1   
    34    15    34 1   
    35    15    35 1   
    36    16    17 1   
    37    16    37 1   
    38    16    38 1   
    39    17    36 1   
    40    18    29 1   
@<TRIPOS>SUBSTRUCTURE
     1 SW4         1 TEMP              0 ****  ****    0 ROOT
