@<TRIPOS>MOLECULE
SW4
   38    40     1     0     0
SMALL
bcc


@<TRIPOS>ATOM
      1 O01          6.7620    -2.0740     0.3000 oh         1 SW4      -0.600800
      2 C02          5.9850    -0.9070     0.4650 c3         1 SW4       0.141400
      3 C03          4.5550    -1.2080     0.0580 c3         1 SW4      -0.054400
      4 C04          3.6750     0.0040     0.2170 cx         1 SW4      -0.110700
      5 C05          3.6490     1.0600    -0.8340 cx         1 SW4      -0.120400
      6 C06          2.4530     0.1610    -0.6510 cx         1 SW4      -0.079400
      7 C07          1.1800     0.6710    -0.0980 ca         1 SW4      -0.121600
      8 C08          1.1250     1.6940     0.8550 ca         1 SW4       0.362200
      9 N09         -0.0050     2.1510     1.3620 nb         1 SW4      -0.639000
     10 C10         -1.1610     1.6310     0.9630 ca         1 SW4       0.313200
     11 C11         -1.2240     0.6100     0.0180 ca         1 SW4       0.037800
     12 O12         -2.3560     0.0460    -0.4290 os         1 SW4      -0.314900
     13 C13         -3.5990     0.4970     0.0890 c3         1 SW4       0.153400
     14 C14         -4.6890    -0.3150    -0.5580 cy         1 SW4       0.140500
     15 C15         -6.1130    -0.1100    -0.0160 cy         1 SW4      -0.103400
     16 C16         -6.2180    -1.6430    -0.0330 cy         1 SW4       0.134800
     17 N17         -4.7520    -1.7230    -0.1420 n6         1 SW4      -0.785200
     18 C18         -0.0270     0.1310    -0.5120 ca         1 SW4      -0.132000
     19 H01          7.6630    -1.8750     0.5690 ho         1 SW4       0.404000
     20 H021         6.0000    -0.5600     1.5070 h1         1 SW4       0.017700
     21 H022         6.3660    -0.0800    -0.1480 h1         1 SW4       0.017700
     22 H031         4.5340    -1.5410    -0.9840 hc         1 SW4       0.057200
     23 H032         4.1640    -2.0310     0.6640 hc         1 SW4       0.057200
     24 H04          3.5600     0.3510     1.2410 hc         1 SW4       0.081700
     25 H051         3.5560     2.0960    -0.5330 hc         1 SW4       0.075700
     26 H052         4.2470     0.9090    -1.7250 hc         1 SW4       0.075700
     27 H06          2.3240    -0.6040    -1.4110 hc         1 SW4       0.085700
     28 H08          2.0340     2.1620     1.2180 h4         1 SW4       0.018100
     29 H18         -0.0510    -0.6650    -1.2480 ha         1 SW4       0.149000
     30 H10         -2.0540     2.0470     1.4140 h4         1 SW4       0.021100
     31 H131        -3.6340     0.3620     1.1760 h1         1 SW4       0.045200
     32 H132        -3.7470     1.5610    -0.1300 h1         1 SW4       0.045200
     33 H14         -4.6530    -0.1810    -1.6470 h1         1 SW4       0.050700
     34 H151        -6.1260     0.3080     0.9910 hc         1 SW4       0.059700
     35 H152        -6.8050     0.4490    -0.6410 hc         1 SW4       0.059700
     36 H17         -4.4090    -2.3850    -0.8250 hn         1 SW4       0.360800
     37 H161        -6.6380    -2.1240     0.8540 h1         1 SW4       0.048700
     38 H162        -6.7550    -2.0110    -0.9120 h1         1 SW4       0.048700
@<TRIPOS>BOND
     1     1     2 1   
     2     1    19 1   
     3     2     3 1   
     4     2    20 1   
     5     2    21 1   
     6     3     4 1   
     7     3    22 1   
     8     3    23 1   
     9     4     5 1   
    10     4     6 1   
    11     4    24 1   
    12     5     6 1   
    13     5    25 1   
    14     5    26 1   
    15     6     7 1   
    16     6    27 1   
    17     7     8 ar  
    18     7    18 ar  
    19     8     9 ar  
    20     8    28 1   
    21     9    10 ar  
    22    10    11 ar  
    23    10    30 1   
    24    11    12 1   
    25    11    18 ar  
    26    12    13 1   
    27    13    14 1   
    28    13    31 1   
    29    13    32 1   
    30    14    15 1   
    31    14    17 1   
    32    14    33 1   
    33    15    16 1   
    34    15    34 1   
    35    15    35 1   
    36    16    17 1   
    37    16    37 1   
    38    16    38 1   
    39    17    36 1   
    40    18    29 1   
@<TRIPOS>SUBSTRUCTURE
     1 SW4         1 TEMP              0 ****  ****    0 ROOT
