@<TRIPOS>MOLECULE
SW5
   50    54     1     0     0
SMALL
No Charge or Current Charge


@<TRIPOS>ATOM
      1 C1          29.3180   193.9370    77.5760 ca         1 SW5      -0.153000
      2 C2          29.5660   195.1660    78.2120 ca         1 SW5      -0.081500
      3 C3          29.4610   196.3720    77.4900 ca         1 SW5      -0.096300
      4 C7          27.1060   199.7590    79.9150 ca         1 SW5       0.364500
      5 C8          27.6870   201.7600    80.9020 ca         1 SW5       0.358900
      6 C9          29.0510   201.6280    80.5230 ca         1 SW5      -0.064000
      7 C10         29.4180   200.4750    79.7970 ca         1 SW5      -0.030000
      8 C11         28.4030   199.5540    79.5090 ca         1 SW5      -0.130800
      9 C12         30.0610   202.6390    80.8610 cc         1 SW5      -0.145000
     10 C13         31.4370   202.6800    80.5760 cc         1 SW5       0.247900
     11 C14         29.7730   203.7750    81.5590 cd         1 SW5      -0.161000
     12 C15         31.1920   205.7440    82.3400 c6         1 SW5       0.104300
     13 C16         32.1680   205.6260    83.5400 c6         1 SW5      -0.128400
     14 C19         31.6780   206.8430    81.3590 c6         1 SW5      -0.128400
     15 C20         29.1000   196.3380    76.1280 ca         1 SW5      -0.081500
     16 C21         28.8530   195.1080    75.4930 ca         1 SW5      -0.153000
     17 C           28.9630   193.9120    76.2180 ca         1 SW5       0.167000
     18 C4          29.7190   197.7060    78.1820 c3         1 SW5       0.047100
     19 C5          28.4810   198.3100    78.7970 cc         1 SW5      -0.137400
     20 N           26.3360   198.6970    79.4940 na         1 SW5      -0.326400
     21 C6          27.1880   197.8000    78.8030 cd         1 SW5      -0.141100
     22 N1          26.7240   200.8460    80.6080 nb         1 SW5      -0.679000
     23 N3          31.0010   204.4400    81.6550 na         1 SW5       0.134800
     24 N2          32.0440   203.7530    81.0380 nd         1 SW5      -0.527800
     25 C18         31.8900   208.1820    82.1000 c6         1 SW5       0.150300
     26 N4          32.8250   208.0130    83.2390 n7         1 SW5      -0.846400
     27 C17         32.3660   207.0000    84.2200 c6         1 SW5       0.150300
     28 H1          29.4000   193.0060    78.1320 ha         1 SW5       0.132000
     29 H2          29.8370   195.1820    79.2660 ha         1 SW5       0.119500
     30 H3          27.3430   202.6270    81.4640 h4         1 SW5       0.013100
     31 H4          30.4400   200.3020    79.4710 ha         1 SW5       0.119000
     32 H5          32.0210   201.9470    80.0360 h4         1 SW5       0.036100
     33 H6          28.8540   204.1620    81.9810 h4         1 SW5       0.153000
     34 H7          30.2130   206.0550    82.7330 h1         1 SW5       0.058700
     35 H8          31.7790   204.9040    84.2710 hc         1 SW5       0.063700
     36 H9          33.1400   205.2400    83.2040 hc         1 SW5       0.063700
     37 H10         30.9440   206.9780    80.5530 hc         1 SW5       0.063700
     38 H11         32.6180   206.5370    80.8800 hc         1 SW5       0.063700
     39 H12         29.0090   197.2640    75.5640 ha         1 SW5       0.119500
     40 H13         28.5750   195.0810    74.4420 ha         1 SW5       0.132000
     41 H14         30.4800   197.5780    78.9620 hc         1 SW5       0.055700
     42 H15         30.1470   198.4180    77.4670 hc         1 SW5       0.055700
     43 H16         25.3430   198.5930    79.6590 hn         1 SW5       0.362000
     44 H17         26.8190   196.8740    78.3680 h4         1 SW5       0.221000
     45 H18         32.2870   208.9340    81.4010 h1         1 SW5       0.055700
     46 H19         30.9220   208.5550    82.4700 h1         1 SW5       0.055700
     47 H20         33.7360   207.7140    82.8680 hn         1 SW5       0.410000
     48 H22         33.1020   206.9080    85.0330 h1         1 SW5       0.055700
     49 H23         31.4160   207.3270    84.6720 h1         1 SW5       0.055700
     50 F           28.7250   192.7310    75.6080 f          1 SW5      -0.181000
@<TRIPOS>BOND
     1     1     2 ar  
     2     1    17 ar  
     3     1    28 1   
     4     2     3 ar  
     5     2    29 1   
     6     3    15 ar  
     7     3    18 1   
     8     4     8 ar  
     9     4    20 1   
    10     4    22 ar  
    11     5     6 ar  
    12     5    22 ar  
    13     5    30 1   
    14     6     7 ar  
    15     6     9 1   
    16     7     8 ar  
    17     7    31 1   
    18     8    19 1   
    19     9    10 1   
    20     9    11 2   
    21    10    24 2   
    22    10    32 1   
    23    11    23 1   
    24    11    33 1   
    25    12    13 1   
    26    12    14 1   
    27    12    23 1   
    28    12    34 1   
    29    13    27 1   
    30    13    35 1   
    31    13    36 1   
    32    14    25 1   
    33    14    37 1   
    34    14    38 1   
    35    15    16 ar  
    36    15    39 1   
    37    16    17 ar  
    38    16    40 1   
    39    17    50 1   
    40    18    19 1   
    41    18    41 1   
    42    18    42 1   
    43    19    21 2   
    44    20    21 1   
    45    20    43 1   
    46    21    44 1   
    47    23    24 1   
    48    25    26 1   
    49    25    45 1   
    50    25    46 1   
    51    26    27 1   
    52    26    47 1   
    53    27    48 1   
    54    27    49 1   
@<TRIPOS>SUBSTRUCTURE
     1 SW5         1 TEMP              0 ****  ****    0 ROOT
