@<TRIPOS>MOLECULE
SW5
   50    54     1     0     0
SMALL
abcg2


@<TRIPOS>ATOM
      1 C1          29.2750   193.8720    77.4310 ca         1 SW5      -0.153000
      2 C2          29.5980   195.0120    78.1570 ca         1 SW5      -0.081500
      3 C3          29.4930   196.2800    77.5970 ca         1 SW5      -0.096300
      4 C7          27.2090   199.7660    79.8630 ca         1 SW5       0.364500
      5 C8          27.6810   201.7700    80.7350 ca         1 SW5       0.358900
      6 C9          29.0590   201.6340    80.4760 ca         1 SW5      -0.064000
      7 C10         29.4970   200.4640    79.8650 ca         1 SW5      -0.030000
      8 C11         28.5570   199.4940    79.5370 ca         1 SW5      -0.130800
      9 C12         29.9930   202.6980    80.8370 cc         1 SW5      -0.145000
     10 C13         31.3590   202.8050    80.5050 cc         1 SW5       0.247900
     11 C14         29.7560   203.8440    81.5750 cd         1 SW5      -0.161000
     12 C15         31.1510   205.7860    82.3190 c6         1 SW5       0.104300
     13 C16         32.1070   205.6150    83.4960 c6         1 SW5      -0.128400
     14 C19         31.6650   206.8530    81.3590 c6         1 SW5      -0.128400
     15 C20         29.0500   196.3880    76.2800 ca         1 SW5      -0.081500
     16 C21         28.7220   195.2640    75.5360 ca         1 SW5      -0.153000
     17 C           28.8420   194.0220    76.1300 ca         1 SW5       0.167000
     18 C4          29.8130   197.5120    78.3970 c3         1 SW5       0.047100
     19 C5          28.5910   198.2080    78.9120 cc         1 SW5      -0.137400
     20 N           26.4670   198.7000    79.4630 na         1 SW5      -0.326400
     21 C6          27.2960   197.7700    78.8910 cd         1 SW5      -0.141100
     22 N1          26.7610   200.8650    80.4460 nb         1 SW5      -0.679000
     23 N3          30.9130   204.5240    81.6360 na         1 SW5       0.134800
     24 N2          31.8960   203.9060    80.9940 nd         1 SW5      -0.527800
     25 C18         31.9270   208.1540    82.1190 c6         1 SW5       0.150300
     26 N4          32.8160   208.0030    83.2580 n7         1 SW5      -0.846400
     27 C17         32.3560   206.9670    84.1660 c6         1 SW5       0.150300
     28 H1          29.3650   192.8880    77.8720 ha         1 SW5       0.132000
     29 H2          29.9390   194.9030    79.1800 ha         1 SW5       0.119500
     30 H3          27.3130   202.6780    81.2020 h4         1 SW5       0.013100
     31 H4          30.5480   200.3070    79.6510 ha         1 SW5       0.119000
     32 H5          31.9640   202.1240    79.9230 h4         1 SW5       0.036100
     33 H6          28.8650   204.2160    82.0550 h4         1 SW5       0.153000
     34 H7          30.1740   206.0970    82.7000 h1         1 SW5       0.058700
     35 H8          31.6920   204.9090    84.2190 hc         1 SW5       0.063700
     36 H9          33.0530   205.2000    83.1370 hc         1 SW5       0.063700
     37 H10         30.9390   207.0190    80.5590 hc         1 SW5       0.063700
     38 H11         32.5930   206.5090    80.8950 hc         1 SW5       0.063700
     39 H12         28.9560   197.3650    75.8230 ha         1 SW5       0.119500
     40 H13         28.3820   195.3550    74.5120 ha         1 SW5       0.132000
     41 H14         30.4660   197.2450    79.2340 hc         1 SW5       0.055700
     42 H15         30.3890   198.2110    77.7820 hc         1 SW5       0.055700
     43 H16         25.4690   198.6120    79.5570 hn         1 SW5       0.362000
     44 H17         26.8920   196.8510    78.4980 h4         1 SW5       0.221000
     45 H18         32.3470   208.8980    81.4390 h1         1 SW5       0.055700
     46 H19         30.9760   208.5640    82.4780 h1         1 SW5       0.055700
     47 H20         33.7420   207.7630    82.9230 hn         1 SW5       0.410000
     48 H22         33.0840   206.8520    84.9710 h1         1 SW5       0.055700
     49 H23         31.4270   207.3130    84.6330 h1         1 SW5       0.055700
     50 F           28.5310   192.9260    75.4150 f          1 SW5      -0.181000
@<TRIPOS>BOND
     1     1     2 ar  
     2     1    17 ar  
     3     1    28 1   
     4     2     3 ar  
     5     2    29 1   
     6     3    15 ar  
     7     3    18 1   
     8     4     8 ar  
     9     4    20 1   
    10     4    22 ar  
    11     5     6 ar  
    12     5    22 ar  
    13     5    30 1   
    14     6     7 ar  
    15     6     9 1   
    16     7     8 ar  
    17     7    31 1   
    18     8    19 1   
    19     9    10 1   
    20     9    11 2   
    21    10    24 2   
    22    10    32 1   
    23    11    23 1   
    24    11    33 1   
    25    12    13 1   
    26    12    14 1   
    27    12    23 1   
    28    12    34 1   
    29    13    27 1   
    30    13    35 1   
    31    13    36 1   
    32    14    25 1   
    33    14    37 1   
    34    14    38 1   
    35    15    16 ar  
    36    15    39 1   
    37    16    17 ar  
    38    16    40 1   
    39    17    50 1   
    40    18    19 1   
    41    18    41 1   
    42    18    42 1   
    43    19    21 2   
    44    20    21 1   
    45    20    43 1   
    46    21    44 1   
    47    23    24 1   
    48    25    26 1   
    49    25    45 1   
    50    25    46 1   
    51    26    27 1   
    52    26    47 1   
    53    27    48 1   
    54    27    49 1   
@<TRIPOS>SUBSTRUCTURE
     1 SW5         1 TEMP              0 ****  ****    0 ROOT
