@<TRIPOS>MOLECULE
SW7
   19    19     1     0     0
SMALL
bcc


@<TRIPOS>ATOM
      1 C4          50.8560   113.2590    30.1720 ca         1 SW7      -0.158600
      2 C5          51.7390   113.6680    31.1700 ca         1 SW7      -0.085500
      3 C6          51.3290   114.5590    32.1500 ca         1 SW7      -0.141000
      4 C7          51.2430   112.3200    29.0760 c          1 SW7       0.683700
      5 N           52.3130   111.5410    29.3050 nt         1 SW7      -0.671000
      6 O           50.6110   112.2770    28.0280 o          1 SW7      -0.606100
      7 C1          50.0310   115.0620    32.1690 ca         1 SW7      -0.052300
      8 C2          49.1550   114.6550    31.1630 ca         1 SW7      -0.141000
      9 C3          49.5620   113.7750    30.1750 ca         1 SW7      -0.085500
     10 H1          52.7640   113.3220    31.1870 ha         1 SW7       0.140500
     11 H2          52.0360   114.8740    32.9080 ha         1 SW7       0.132500
     12 H3          52.5950   110.8720    28.6080 hn         1 SW7       0.312000
     13 H4          52.7400   111.4580    30.2110 hn         1 SW7       0.312000
     14 H5          48.9810   115.4740    33.9940 hc         1 SW7       0.045700
     15 H6          50.4240   116.4520    33.7650 hc         1 SW7       0.045700
     16 H7          48.9580   116.8020    32.8460 hc         1 SW7       0.045700
     17 H8          48.1410   115.0370    31.1480 ha         1 SW7       0.132500
     18 H9          48.8640   113.4810    29.4030 ha         1 SW7       0.140500
     19 C           49.5790   116.0010    33.2480 c3         1 SW7      -0.051800
@<TRIPOS>BOND
     1     1     2 ar  
     2     1     4 1   
     3     1     9 ar  
     4     2     3 ar  
     5     2    10 1   
     6     3     7 ar  
     7     3    11 1   
     8     4     5 1   
     9     4     6 2   
    10     5    12 1   
    11     5    13 1   
    12     7     8 ar  
    13     7    19 1   
    14     8     9 ar  
    15     8    17 1   
    16     9    18 1   
    17    14    19 1   
    18    15    19 1   
    19    16    19 1   
@<TRIPOS>SUBSTRUCTURE
     1 SW7         1 TEMP              0 ****  ****    0 ROOT
