@<TRIPOS>MOLECULE
SW7
   19    19     1     0     0
SMALL
No Charge or Current Charge


@<TRIPOS>ATOM
      1 C4          50.8070   113.1940    30.1940 ca         1 SW7      -0.158600
      2 C5          51.6750   113.5250    31.2630 ca         1 SW7      -0.067500
      3 C6          51.2780   114.4500    32.2450 ca         1 SW7      -0.123000
      4 C7          51.2000   112.2030    29.1180 c          1 SW7       0.616700
      5 N           52.4190   111.6260    29.1920 nt         1 SW7      -0.604000
      6 O           50.4630   111.9070    28.1920 o          1 SW7      -0.606100
      7 C1          50.0140   115.0620    32.1820 ca         1 SW7      -0.052300
      8 C2          49.1460   114.7360    31.1260 ca         1 SW7      -0.123000
      9 C3          49.5370   113.8130    30.1420 ca         1 SW7      -0.067500
     10 H1          52.6600   113.0750    31.3480 ha         1 SW7       0.122500
     11 H2          51.9580   114.6900    33.0600 ha         1 SW7       0.114500
     12 H3          52.6920   110.9640    28.4810 hn         1 SW7       0.312000
     13 H4          53.0460   111.8540    29.9470 hn         1 SW7       0.312000
     14 H5          49.0870   115.5490    34.0810 hc         1 SW7       0.045700
     15 H6          50.4490   116.6000    33.6580 hc         1 SW7       0.045700
     16 H7          48.8930   116.8040    32.8450 hc         1 SW7       0.045700
     17 H8          48.1630   115.1990    31.0660 ha         1 SW7       0.114500
     18 H9          48.8460   113.5800    29.3340 ha         1 SW7       0.122500
     19 C           49.5880   116.0580    33.2490 c3         1 SW7      -0.051800
@<TRIPOS>BOND
     1     1     2 ar  
     2     1     4 1   
     3     1     9 ar  
     4     2     3 ar  
     5     2    10 1   
     6     3     7 ar  
     7     3    11 1   
     8     4     5 1   
     9     4     6 2   
    10     5    12 1   
    11     5    13 1   
    12     7     8 ar  
    13     7    19 1   
    14     8     9 ar  
    15     8    17 1   
    16     9    18 1   
    17    14    19 1   
    18    15    19 1   
    19    16    19 1   
@<TRIPOS>SUBSTRUCTURE
     1 SW7         1 TEMP              0 ****  ****    0 ROOT
