@<TRIPOS>MOLECULE
SW8
   50    54     1     0     0
SMALL
abcg2


@<TRIPOS>ATOM
      1 C1         194.1270   -32.2680    81.5090 ca         1 SW8      -0.154000
      2 C2         195.2030   -32.3950    80.6410 ca         1 SW8      -0.086000
      3 C3         196.4720   -32.6860    81.1240 ca         1 SW8      -0.124000
      4 C7         198.3930   -30.5880    83.2500 cc         1 SW8      -0.140100
      5 C8         200.4380   -30.4520    84.1060 ca         1 SW8       0.364500
      6 C9         202.4700   -30.8810    84.9340 ca         1 SW8       0.359900
      7 C10        202.2940   -32.2740    84.8230 ca         1 SW8      -0.065000
      8 C11        201.0910   -32.7450    84.3070 ca         1 SW8      -0.029000
      9 C12        200.1260   -31.8190    83.9290 ca         1 SW8      -0.130800
     10 C13        203.3550   -33.1910    85.2350 cc         1 SW8      -0.147000
     11 C14        203.4870   -34.5610    84.9320 cc         1 SW8       0.248900
     12 C15        204.4690   -32.9280    86.0110 cd         1 SW8      -0.161000
     13 C16        206.3970   -34.2890    86.8490 c6         1 SW8       0.104300
     14 C19        207.5240   -35.4460    88.7580 c6         1 SW8       0.150300
     15 C20        206.1940   -35.2270    88.0350 c6         1 SW8      -0.128400
     16 C21        195.6150   -32.7280    83.3650 ca         1 SW8      -0.149000
     17 C          194.3630   -32.4380    82.8600 ca         1 SW8       0.168000
     18 C4         196.6880   -32.8580    82.4880 ca         1 SW8      -0.053300
     19 C5         198.0660   -33.1350    83.0200 c3         1 SW8       0.042100
     20 C6         198.8080   -31.8840    83.3780 cd         1 SW8      -0.137400
     21 N          199.3670   -29.7290    83.6850 na         1 SW8      -0.325400
     22 N1         201.5710   -29.9740    84.5930 nb         1 SW8      -0.679000
     23 N3         205.1590   -34.0750    86.1170 na         1 SW8       0.134800
     24 N2         204.5750   -35.0760    85.4700 nd         1 SW8      -0.527800
     25 N4         208.5970   -35.9100    87.8960 n7         1 SW8      -0.846400
     26 C18        208.7790   -35.0400    86.7470 c6         1 SW8       0.150300
     27 C17        207.5030   -34.8070    85.9370 c6         1 SW8      -0.128400
     28 H1         193.1330   -32.0440    81.1460 ha         1 SW8       0.132000
     29 H2         195.0460   -32.2690    79.5780 ha         1 SW8       0.117000
     30 H3         197.3010   -32.7810    80.4340 ha         1 SW8       0.120000
     31 H4         197.4590   -30.2030    82.8720 h4         1 SW8       0.221000
     32 H5         203.4060   -30.4930    85.3220 h4         1 SW8       0.014100
     33 H6         200.9050   -33.8080    84.2110 ha         1 SW8       0.120000
     34 H7         202.8340   -35.1790    84.3330 h4         1 SW8       0.036100
     35 H8         204.8080   -32.0230    86.4910 h4         1 SW8       0.153000
     36 H9         206.6840   -33.3020    87.2250 h1         1 SW8       0.058700
     37 H10        207.3900   -36.1590    89.5730 h1         1 SW8       0.055700
     38 H11        207.8420   -34.5030    89.2180 h1         1 SW8       0.055700
     39 H12        205.4560   -34.8100    88.7240 hc         1 SW8       0.063700
     40 H13        205.8060   -36.1850    87.6760 hc         1 SW8       0.063700
     41 H14        195.7540   -32.8540    84.4320 ha         1 SW8       0.134000
     42 H15        198.0000   -33.7840    83.8980 hc         1 SW8       0.056700
     43 H16        198.6380   -33.6980    82.2760 hc         1 SW8       0.056700
     44 H17        199.2970   -28.7250    83.6940 hn         1 SW8       0.362000
     45 H18        208.3790   -36.8450    87.5700 hn         1 SW8       0.410000
     46 H20        209.5530   -35.4620    86.1030 h1         1 SW8       0.055700
     47 H21        209.1620   -34.0780    87.1050 h1         1 SW8       0.055700
     48 H22        207.1840   -35.7460    85.4770 hc         1 SW8       0.063700
     49 H23        207.6900   -34.0940    85.1300 hc         1 SW8       0.063700
     50 F          193.3340   -32.3210    83.7180 f          1 SW8      -0.181000
@<TRIPOS>BOND
     1     1     2 ar  
     2     1    17 ar  
     3     1    28 1   
     4     2     3 ar  
     5     2    29 1   
     6     3    18 ar  
     7     3    30 1   
     8     4    20 2   
     9     4    21 1   
    10     4    31 1   
    11     5     9 ar  
    12     5    21 1   
    13     5    22 ar  
    14     6     7 ar  
    15     6    22 ar  
    16     6    32 1   
    17     7     8 ar  
    18     7    10 1   
    19     8     9 ar  
    20     8    33 1   
    21     9    20 1   
    22    10    11 1   
    23    10    12 2   
    24    11    24 2   
    25    11    34 1   
    26    12    23 1   
    27    12    35 1   
    28    13    15 1   
    29    13    23 1   
    30    13    27 1   
    31    13    36 1   
    32    14    15 1   
    33    14    25 1   
    34    14    37 1   
    35    14    38 1   
    36    15    39 1   
    37    15    40 1   
    38    16    17 ar  
    39    16    18 ar  
    40    16    41 1   
    41    17    50 1   
    42    18    19 1   
    43    19    20 1   
    44    19    42 1   
    45    19    43 1   
    46    21    44 1   
    47    23    24 1   
    48    25    26 1   
    49    25    45 1   
    50    26    27 1   
    51    26    46 1   
    52    26    47 1   
    53    27    48 1   
    54    27    49 1   
@<TRIPOS>SUBSTRUCTURE
     1 SW8         1 TEMP              0 ****  ****    0 ROOT
