@<TRIPOS>MOLECULE
SW8
   50    54     1     0     0
SMALL
No Charge or Current Charge


@<TRIPOS>ATOM
      1 C1         194.1060   -32.4530    81.5320 ca         1 SW8      -0.154000
      2 C2         195.1460   -32.4250    80.5870 ca         1 SW8      -0.086000
      3 C3         196.4770   -32.6020    81.0040 ca         1 SW8      -0.124000
      4 C7         198.3790   -30.4360    83.1520 cc         1 SW8      -0.140100
      5 C8         200.4280   -30.3250    84.2080 ca         1 SW8       0.364500
      6 C9         202.4430   -30.8630    85.1810 ca         1 SW8       0.359900
      7 C10        202.2570   -32.2550    84.9480 ca         1 SW8      -0.065000
      8 C11        201.0690   -32.6610    84.3030 ca         1 SW8      -0.029000
      9 C12        200.1700   -31.6490    83.9460 ca         1 SW8      -0.130800
     10 C13        203.2520   -33.2570    85.3550 cc         1 SW8      -0.147000
     11 C14        203.2440   -34.6560    85.2120 cc         1 SW8       0.248900
     12 C15        204.4200   -32.9350    85.9810 cd         1 SW8      -0.161000
     13 C16        206.3760   -34.3280    86.8390 c6         1 SW8       0.104300
     14 C19        207.6660   -35.3430    88.7870 c6         1 SW8       0.150300
     15 C20        206.2740   -35.1730    88.1360 c6         1 SW8      -0.128400
     16 C21        195.7300   -32.8360    83.3070 ca         1 SW8      -0.149000
     17 C          194.4020   -32.6580    82.8880 ca         1 SW8       0.168000
     18 C4         196.7780   -32.8110    82.3650 ca         1 SW8      -0.053300
     19 C5         198.2220   -32.9930    82.8190 c3         1 SW8       0.042100
     20 C6         198.8870   -31.7200    83.2860 cd         1 SW8      -0.137400
     21 N          199.3560   -29.5990    83.7340 na         1 SW8      -0.325400
     22 N1         201.5470   -29.9040    84.8200 nb         1 SW8      -0.679000
     23 N3         205.0530   -34.1670    86.1810 na         1 SW8       0.134800
     24 N2         204.3160   -35.2460    85.6990 nd         1 SW8      -0.527800
     25 N4         208.6290   -35.9320    87.8250 n7         1 SW8      -0.846400
     26 C18        208.7840   -35.1230    86.5910 c6         1 SW8       0.150300
     27 C17        207.4250   -34.9470    85.8770 c6         1 SW8      -0.128400
     28 H1         193.0750   -32.3160    81.2170 ha         1 SW8       0.132000
     29 H2         194.9220   -32.2640    79.5340 ha         1 SW8       0.117000
     30 H3         197.2780   -32.5740    80.2670 ha         1 SW8       0.120000
     31 H4         197.4520   -30.0700    82.7140 h4         1 SW8       0.221000
     32 H5         203.3400   -30.4930    85.6740 h4         1 SW8       0.014100
     33 H6         200.8540   -33.7040    84.0890 ha         1 SW8       0.120000
     34 H7         202.4760   -35.2690    84.7590 h4         1 SW8       0.036100
     35 H8         204.8480   -31.9900    86.2940 h4         1 SW8       0.153000
     36 H9         206.7280   -33.3250    87.1180 h1         1 SW8       0.058700
     37 H10        207.5830   -35.9900    89.6740 h1         1 SW8       0.055700
     38 H11        208.0350   -34.3640    89.1270 h1         1 SW8       0.055700
     39 H12        205.5900   -34.6890    88.8460 hc         1 SW8       0.063700
     40 H13        205.8500   -36.1620    87.9140 hc         1 SW8       0.063700
     41 H14        195.9440   -32.9880    84.3620 ha         1 SW8       0.134000
     42 H15        198.2550   -33.7340    83.6270 hc         1 SW8       0.056700
     43 H16        198.8130   -33.4270    82.0030 hc         1 SW8       0.056700
     44 H17        199.3000   -28.5900    83.8040 hn         1 SW8       0.362000
     45 H18        208.2920   -36.8660    87.5600 hn         1 SW8       0.410000
     46 H20        209.4980   -35.6130    85.9120 h1         1 SW8       0.055700
     47 H21        209.1960   -34.1350    86.8470 h1         1 SW8       0.055700
     48 H22        207.0750   -35.9200    85.5080 hc         1 SW8       0.063700
     49 H23        207.5510   -34.3030    84.9950 hc         1 SW8       0.063700
     50 F          193.4030   -32.6830    83.7970 f          1 SW8      -0.181000
@<TRIPOS>BOND
     1     1     2 ar  
     2     1    17 ar  
     3     1    28 1   
     4     2     3 ar  
     5     2    29 1   
     6     3    18 ar  
     7     3    30 1   
     8     4    20 2   
     9     4    21 1   
    10     4    31 1   
    11     5     9 ar  
    12     5    21 1   
    13     5    22 ar  
    14     6     7 ar  
    15     6    22 ar  
    16     6    32 1   
    17     7     8 ar  
    18     7    10 1   
    19     8     9 ar  
    20     8    33 1   
    21     9    20 1   
    22    10    11 1   
    23    10    12 2   
    24    11    24 2   
    25    11    34 1   
    26    12    23 1   
    27    12    35 1   
    28    13    15 1   
    29    13    23 1   
    30    13    27 1   
    31    13    36 1   
    32    14    15 1   
    33    14    25 1   
    34    14    37 1   
    35    14    38 1   
    36    15    39 1   
    37    15    40 1   
    38    16    17 ar  
    39    16    18 ar  
    40    16    41 1   
    41    17    50 1   
    42    18    19 1   
    43    19    20 1   
    44    19    42 1   
    45    19    43 1   
    46    21    44 1   
    47    23    24 1   
    48    25    26 1   
    49    25    45 1   
    50    26    27 1   
    51    26    46 1   
    52    26    47 1   
    53    27    48 1   
    54    27    49 1   
@<TRIPOS>SUBSTRUCTURE
     1 SW8         1 TEMP              0 ****  ****    0 ROOT
