@<TRIPOS>MOLECULE
SW9
   31    31     1     0     0
SMALL
No Charge or Current Charge


@<TRIPOS>ATOM
      1 C4           5.2910    -7.6060   -44.2910 c3         1 SW9       0.191100
      2 C5           5.7370    -9.7590   -42.9700 c6         1 SW9       0.201500
      3 C6           6.2250   -10.5060   -44.2460 c6         1 SW9      -0.060400
      4 C7           6.4750   -12.0250   -43.9780 c6         1 SW9      -0.296400
      5 C8           3.9040   -11.6370   -42.9630 c6         1 SW9      -0.296400
      6 N            5.8490    -8.2670   -43.0840 nh         1 SW9      -0.646400
      7 C            6.8410    -9.8360   -39.2090 c3         1 SW9      -0.059900
      8 C1           7.0030    -8.3940   -39.6420 c2         1 SW9      -0.183300
      9 C3           6.3840    -7.4930   -42.0460 c2         1 SW9      -0.021100
     10 C9           4.2900   -10.1790   -42.5610 c6         1 SW9      -0.060400
     11 S            5.2750   -12.8220   -42.8550 s6         1 SW9       1.072000
     12 H1           4.5470    -6.8540   -43.9970 h1         1 SW9       0.035367
     13 H2           6.0890    -7.1010   -44.8500 h1         1 SW9       0.035367
     14 H3           4.7950    -8.3180   -44.9610 h1         1 SW9       0.035367
     15 H4           6.4160   -10.1040   -42.1770 h1         1 SW9       0.057700
     16 H5           7.1530   -10.0500   -44.6170 hc         1 SW9       0.065700
     17 H6           5.4860   -10.3980   -45.0520 hc         1 SW9       0.065700
     18 H7           6.4500   -12.5960   -44.9140 h1         1 SW9       0.104700
     19 H8           7.4500   -12.1790   -43.5000 h1         1 SW9       0.104700
     20 H9           3.5790   -11.6770   -44.0110 h1         1 SW9       0.104700
     21 H10          3.0990   -12.0290   -42.3290 h1         1 SW9       0.104700
     22 H11          7.4740   -10.5020   -39.8070 hc         1 SW9       0.042700
     23 H12          7.1200    -9.9660   -38.1570 hc         1 SW9       0.042700
     24 H13          5.8020   -10.1700   -39.3230 hc         1 SW9       0.042700
     25 H14          7.4030    -7.7220   -38.8800 ha         1 SW9       0.180000
     26 H15          6.4880    -6.4300   -42.2810 h4         1 SW9       0.195000
     27 H16          4.1930   -10.0570   -41.4730 hc         1 SW9       0.065700
     28 H17          3.5530    -9.4920   -43.0010 hc         1 SW9       0.065700
     29 O            5.8130   -12.7860   -41.4890 o          1 SW9      -0.517500
     30 C2           6.6990    -7.9300   -40.8390 c1         1 SW9      -0.152800
     31 O1           4.8480   -14.0970   -43.4430 o          1 SW9      -0.517500
@<TRIPOS>BOND
     1     1     6 1   
     2     1    12 1   
     3     1    13 1   
     4     1    14 1   
     5     2     3 1   
     6     2     6 1   
     7     2    10 1   
     8     2    15 1   
     9     3     4 1   
    10     3    16 1   
    11     3    17 1   
    12     4    11 1   
    13     4    18 1   
    14     4    19 1   
    15     5    10 1   
    16     5    11 1   
    17     5    20 1   
    18     5    21 1   
    19     6     9 1   
    20     7     8 1   
    21     7    22 1   
    22     7    23 1   
    23     7    24 1   
    24     8    25 1   
    25     8    30 2   
    26     9    26 1   
    27     9    30 2   
    28    10    27 1   
    29    10    28 1   
    30    11    29 2   
    31    11    31 2   
@<TRIPOS>SUBSTRUCTURE
     1 SW9         1 TEMP              0 ****  ****    0 ROOT
