@<TRIPOS>MOLECULE
SW9
   31    31     1     0     0
SMALL
abcg2


@<TRIPOS>ATOM
      1 C4           5.9250    -7.6140   -44.3430 c3         1 SW9       0.191100
      2 C5           5.8200    -9.8170   -43.1430 c6         1 SW9       0.201500
      3 C6           5.7100   -10.4200   -44.5450 c6         1 SW9      -0.060400
      4 C7           6.1840   -11.8730   -44.5920 c6         1 SW9      -0.296400
      5 C8           4.2510   -11.8210   -42.6260 c6         1 SW9      -0.296400
      6 N            5.6470    -8.3680   -43.1350 nh         1 SW9      -0.646400
      7 C            6.0090    -9.2200   -38.6410 c3         1 SW9      -0.059900
      8 C1           6.9330    -8.7750   -39.7380 c2         1 SW9      -0.183300
      9 C3           6.0500    -7.7280   -41.9670 c2         1 SW9      -0.021100
     10 C9           4.7820   -10.4580   -42.1870 c6         1 SW9      -0.060400
     11 S            5.5840   -12.8520   -43.2010 s6         1 SW9       1.072000
     12 H1           5.7040    -6.5640   -44.1570 h1         1 SW9       0.035367
     13 H2           6.9690    -7.6790   -44.6740 h1         1 SW9       0.035367
     14 H3           5.2840    -7.9350   -45.1620 h1         1 SW9       0.035367
     15 H4           6.8290   -10.0580   -42.7710 h1         1 SW9       0.057700
     16 H5           6.3410    -9.8840   -45.2520 hc         1 SW9       0.065700
     17 H6           4.6860   -10.3440   -44.9170 hc         1 SW9       0.065700
     18 H7           5.8430   -12.3600   -45.5050 h1         1 SW9       0.104700
     19 H8           7.2720   -11.9380   -44.5460 h1         1 SW9       0.104700
     20 H9           3.5330   -11.7490   -43.4440 h1         1 SW9       0.104700
     21 H10          3.7710   -12.3510   -41.8010 h1         1 SW9       0.104700
     22 H11          6.1450   -10.2820   -38.4260 hc         1 SW9       0.042700
     23 H12          6.2230    -8.6820   -37.7150 hc         1 SW9       0.042700
     24 H13          4.9650    -9.0540   -38.9010 hc         1 SW9       0.042700
     25 H14          7.9970    -8.8970   -39.5430 ha         1 SW9       0.180000
     26 H15          5.9170    -6.6490   -41.9860 h4         1 SW9       0.195000
     27 H16          5.1960   -10.5450   -41.1840 hc         1 SW9       0.065700
     28 H17          3.9210    -9.7910   -42.1200 hc         1 SW9       0.065700
     29 O            6.6200   -12.8730   -42.1650 o          1 SW9      -0.517500
     30 C2           6.5520    -8.2700   -40.8810 c1         1 SW9      -0.152800
     31 O1           5.0670   -14.1330   -43.6790 o          1 SW9      -0.517500
@<TRIPOS>BOND
     1     1     6 1   
     2     1    12 1   
     3     1    13 1   
     4     1    14 1   
     5     2     3 1   
     6     2     6 1   
     7     2    10 1   
     8     2    15 1   
     9     3     4 1   
    10     3    16 1   
    11     3    17 1   
    12     4    11 1   
    13     4    18 1   
    14     4    19 1   
    15     5    10 1   
    16     5    11 1   
    17     5    20 1   
    18     5    21 1   
    19     6     9 1   
    20     7     8 1   
    21     7    22 1   
    22     7    23 1   
    23     7    24 1   
    24     8    25 1   
    25     8    30 2   
    26     9    26 1   
    27     9    30 2   
    28    10    27 1   
    29    10    28 1   
    30    11    29 2   
    31    11    31 2   
@<TRIPOS>SUBSTRUCTURE
     1 SW9         1 TEMP              0 ****  ****    0 ROOT
