@<TRIPOS>MOLECULE
SWA
   27    28     1     0     0
SMALL
bcc


@<TRIPOS>ATOM
      1 C1           0.9240     0.1480     1.4600 c6         1 SWA       0.160100
      2 O1           2.1700    -0.4940     1.6280 oh         1 SWA      -0.597800
      3 C3           0.2560    -0.4550     0.2360 c5         1 SWA       0.180500
      4 N4          -1.0390     0.1650     0.0190 n3         1 SWA      -0.724600
      5 C5          -1.9660    -0.0310     1.1060 c6         1 SWA       0.179800
      6 C6          -1.3800     0.5450     2.3870 c6         1 SWA      -0.071400
      7 C2           0.0040    -0.0370     2.6640 c6         1 SWA      -0.115400
      8 C9          -1.4960    -0.2590    -1.2900 c5         1 SWA       0.144800
      9 C8          -0.2120    -0.6080    -2.0710 c5         1 SWA       0.089100
     10 O13         -0.0290     0.0930    -3.2760 oh         1 SWA      -0.597800
     11 C7           0.9400    -0.2650    -1.1080 c5         1 SWA       0.173100
     12 O11          1.3680     1.0650    -1.2450 oh         1 SWA      -0.581800
     13 HC1          1.0550     1.2240     1.2860 h1         1 SWA       0.065700
     14 HO1          2.6170    -0.0880     2.3760 ho         1 SWA       0.405000
     15 HC3          0.1600    -1.5460     0.4080 h1         1 SWA       0.033700
     16 HC51        -2.1970    -1.1020     1.2520 h1         1 SWA       0.029700
     17 HC52        -2.9090     0.4660     0.8660 h1         1 SWA       0.029700
     18 HC61        -2.0510     0.3440     3.2250 hc         1 SWA       0.049700
     19 HC62        -1.3110     1.6330     2.2890 hc         1 SWA       0.049700
     20 HC21        -0.0850    -1.1070     2.8820 hc         1 SWA       0.043700
     21 HC22         0.4430     0.4340     3.5480 hc         1 SWA       0.043700
     22 HC91        -2.1480    -1.1430    -1.2310 h1         1 SWA       0.040700
     23 HC92        -2.0690     0.5320    -1.7840 h1         1 SWA       0.040700
     24 HC8         -0.1890    -1.6890    -2.2500 h1         1 SWA       0.035700
     25 H13O        -0.6900    -0.1960    -3.9110 ho         1 SWA       0.414000
     26 HC7          1.7740    -0.9650    -1.2350 h1         1 SWA       0.056700
     27 H11O         1.3830     1.2770    -2.1850 ho         1 SWA       0.423000
@<TRIPOS>BOND
     1     1     2 1   
     2     1     3 1   
     3     1     7 1   
     4     1    13 1   
     5     2    14 1   
     6     3     4 1   
     7     3    11 1   
     8     3    15 1   
     9     4     5 1   
    10     4     8 1   
    11     5     6 1   
    12     5    16 1   
    13     5    17 1   
    14     6     7 1   
    15     6    18 1   
    16     6    19 1   
    17     7    20 1   
    18     7    21 1   
    19     8     9 1   
    20     8    22 1   
    21     8    23 1   
    22     9    10 1   
    23     9    11 1   
    24     9    24 1   
    25    10    25 1   
    26    11    12 1   
    27    11    26 1   
    28    12    27 1   
@<TRIPOS>SUBSTRUCTURE
     1 SWA         1 TEMP              0 ****  ****    0 ROOT
