@<TRIPOS>MOLECULE
SWA
   27    28     1     0     0
SMALL
No Charge or Current Charge


@<TRIPOS>ATOM
      1 C1           0.9690     0.0650     1.4990 c6         1 SWA       0.183300
      2 O1           2.1900    -0.6310     1.8010 oh         1 SWA      -0.660000
      3 C3           0.2860    -0.5090     0.2130 c5         1 SWA       0.180500
      4 N4          -1.0240     0.1590    -0.0210 n3         1 SWA      -0.724600
      5 C5          -1.9890     0.0670     1.0990 c6         1 SWA       0.179800
      6 C6          -1.3590     0.6340     2.3960 c6         1 SWA      -0.071400
      7 C2           0.0020    -0.0460     2.7090 c6         1 SWA      -0.115400
      8 C9          -1.4700    -0.3990    -1.3220 c5         1 SWA       0.144800
      9 C8          -0.1430    -0.6000    -2.1530 c5         1 SWA       0.112300
     10 O13         -0.0820     0.2090    -3.3450 oh         1 SWA      -0.660000
     11 C7           1.0100    -0.2370    -1.1470 c5         1 SWA       0.196300
     12 O11          1.3990     1.1320    -1.3400 oh         1 SWA      -0.644000
     13 HC1          1.1780     1.1330     1.3300 h1         1 SWA       0.065700
     14 HO1          2.5730    -0.1940     2.5930 ho         1 SWA       0.444000
     15 HC3          0.1450    -1.5900     0.3580 h1         1 SWA       0.033700
     16 HC51        -2.2750    -0.9820     1.2680 h1         1 SWA       0.029700
     17 HC52        -2.9070     0.6250     0.8630 h1         1 SWA       0.029700
     18 HC61        -2.0520     0.4940     3.2360 hc         1 SWA       0.049700
     19 HC62        -1.2150     1.7170     2.2860 hc         1 SWA       0.049700
     20 HC21        -0.1660    -1.1030     2.9570 hc         1 SWA       0.043700
     21 HC22         0.4510     0.4200     3.5970 hc         1 SWA       0.043700
     22 HC91        -1.9720    -1.3670    -1.1820 h1         1 SWA       0.040700
     23 HC92        -2.1810     0.2720    -1.8240 h1         1 SWA       0.040700
     24 HC8         -0.0570    -1.6600    -2.4290 h1         1 SWA       0.035700
     25 H13O        -0.7700    -0.1320    -3.9620 ho         1 SWA       0.453000
     26 HC7          1.8770    -0.9010    -1.2720 h1         1 SWA       0.056700
     27 H11O         0.9080     1.3650    -2.1640 ho         1 SWA       0.462000
@<TRIPOS>BOND
     1     1     2 1   
     2     1     3 1   
     3     1     7 1   
     4     1    13 1   
     5     2    14 1   
     6     3     4 1   
     7     3    11 1   
     8     3    15 1   
     9     4     5 1   
    10     4     8 1   
    11     5     6 1   
    12     5    16 1   
    13     5    17 1   
    14     6     7 1   
    15     6    18 1   
    16     6    19 1   
    17     7    20 1   
    18     7    21 1   
    19     8     9 1   
    20     8    22 1   
    21     8    23 1   
    22     9    10 1   
    23     9    11 1   
    24     9    24 1   
    25    10    25 1   
    26    11    12 1   
    27    11    26 1   
    28    12    27 1   
@<TRIPOS>SUBSTRUCTURE
     1 SWA         1 TEMP              0 ****  ****    0 ROOT
