@<TRIPOS>MOLECULE
SWB
   31    34     1     0     0
SMALL
abcg2


@<TRIPOS>ATOM
      1 C1         198.1720   -31.3120    83.9800 cc         1 SWB      -0.129400
      2 C2         198.0200   -29.9590    83.8270 cd         1 SWB      -0.148100
      3 C3         200.2200   -30.2640    84.0990 ca         1 SWB       0.371500
      4 C7         202.2690   -31.1350    84.4210 ca         1 SWB       0.362900
      5 C8         202.6880   -33.5730    84.7170 cc         1 SWB      -0.066000
      6 C9         202.4180   -34.9230    84.4750 cd         1 SWB      -0.165000
      7 C10        204.4780   -34.8390    85.2700 cd         1 SWB      -0.254600
      8 C11        204.0180   -33.5460    85.2190 cc         1 SWB      -0.146300
      9 C12        205.0870   -32.6380    85.7480 c5         1 SWB       0.179300
     10 C13        205.8260   -34.9100    85.8240 c          1 SWB       0.608600
     11 O          206.5500   -35.8870    86.0260 o          1 SWB      -0.557000
     12 N2         203.5060   -35.6800    84.8170 na         1 SWB      -0.058000
     13 N3         206.1370   -33.6030    86.0910 ns         1 SWB      -0.525900
     14 C6         201.7690   -32.4520    84.4990 ca         1 SWB      -0.079000
     15 C5         200.3910   -32.6450    84.3660 ca         1 SWB      -0.027000
     16 C4         199.5810   -31.5340    84.1560 ca         1 SWB      -0.131800
     17 C          197.1010   -32.3540    83.9710 c3         1 SWB      -0.016900
     18 N1         201.5230   -30.0450    84.2270 nb         1 SWB      -0.682000
     19 N          199.2470   -29.3230    83.8960 na         1 SWB      -0.338400
     20 H1         197.1200   -29.3860    83.6700 h4         1 SWB       0.215000
     21 H2         203.3350   -30.9640    84.5120 h4         1 SWB       0.017100
     22 H3         201.5340   -35.3890    84.0730 h4         1 SWB       0.152000
     23 H4         205.4490   -31.9240    85.0040 h1         1 SWB       0.060200
     24 H5         203.5670   -36.6820    84.7340 hn         1 SWB       0.366000
     25 H6         199.9620   -33.6360    84.4390 ha         1 SWB       0.117000
     26 H7         197.2620   -33.0850    83.1730 hc         1 SWB       0.038700
     27 H8         197.0780   -32.9100    84.9120 hc         1 SWB       0.038700
     28 H9         196.1200   -31.9020    83.8210 hc         1 SWB       0.038700
     29 H10        199.3990   -28.3300    83.8260 hn         1 SWB       0.362000
     30 H11        204.7700   -32.0740    86.6300 h1         1 SWB       0.060200
     31 H12        207.0310   -33.3320    86.4670 hn         1 SWB       0.335500
@<TRIPOS>BOND
     1     1     2 2   
     2     1    16 1   
     3     1    17 1   
     4     2    19 1   
     5     2    20 1   
     6     3    16 ar  
     7     3    18 ar  
     8     3    19 1   
     9     4    14 ar  
    10     4    18 ar  
    11     4    21 1   
    12     5     6 2   
    13     5     8 1   
    14     5    14 1   
    15     6    12 1   
    16     6    22 1   
    17     7     8 2   
    18     7    10 1   
    19     7    12 1   
    20     8     9 1   
    21     9    13 1   
    22     9    23 1   
    23     9    30 1   
    24    10    11 2   
    25    10    13 1   
    26    12    24 1   
    27    13    31 1   
    28    14    15 ar  
    29    15    16 ar  
    30    15    25 1   
    31    17    26 1   
    32    17    27 1   
    33    17    28 1   
    34    19    29 1   
@<TRIPOS>SUBSTRUCTURE
     1 SWB         1 TEMP              0 ****  ****    0 ROOT
