@<TRIPOS>MOLECULE
SWB
   31    34     1     0     0
SMALL
No Charge or Current Charge


@<TRIPOS>ATOM
      1 C1         198.2470   -31.3290    83.8660 cc         1 SWB      -0.129400
      2 C2         197.9950   -29.9670    83.7860 cd         1 SWB      -0.148100
      3 C3         200.1810   -30.1870    84.2930 ca         1 SWB       0.371500
      4 C7         202.2500   -31.0750    84.7850 ca         1 SWB       0.362900
      5 C8         202.6780   -33.5630    84.9230 cc         1 SWB      -0.066000
      6 C9         202.2370   -34.8780    84.8420 cd         1 SWB      -0.165000
      7 C10        204.4430   -34.8950    85.3510 cd         1 SWB      -0.254600
      8 C11        204.0480   -33.6450    85.2400 cc         1 SWB      -0.146300
      9 C12        205.1170   -32.6130    85.4700 c5         1 SWB       0.179300
     10 C13        205.8490   -34.9370    85.6760 c          1 SWB       0.608600
     11 O          206.5690   -35.9050    85.8570 o          1 SWB      -0.557000
     12 N2         203.3470   -35.7190    85.1120 na         1 SWB      -0.058000
     13 N3         206.2210   -33.6000    85.7400 ns         1 SWB      -0.525900
     14 C6         201.7800   -32.4140    84.6980 ca         1 SWB      -0.079000
     15 C5         200.4120   -32.5970    84.3850 ca         1 SWB      -0.027000
     16 C4         199.6400   -31.4450    84.1890 ca         1 SWB      -0.131800
     17 C          197.2750   -32.4580    83.6600 c3         1 SWB      -0.016900
     18 N1         201.4740   -29.9760    84.5880 nb         1 SWB      -0.682000
     19 N          199.1940   -29.2580    84.0510 na         1 SWB      -0.338400
     20 H1         197.0600   -29.4570    83.5620 h4         1 SWB       0.215000
     21 H2         203.2880   -30.8590    85.0200 h4         1 SWB       0.017100
     22 H3         201.2580   -35.2880    84.6230 h4         1 SWB       0.152000
     23 H4         205.2970   -32.0020    84.5750 h1         1 SWB       0.060200
     24 H5         203.3430   -36.7360    85.1270 hn         1 SWB       0.366000
     25 H6         199.9580   -33.5780    84.2960 ha         1 SWB       0.117000
     26 H7         197.5970   -33.1030    82.8340 hc         1 SWB       0.038700
     27 H8         197.1980   -33.0750    84.5630 hc         1 SWB       0.038700
     28 H9         196.2740   -32.0800    83.4230 hc         1 SWB       0.038700
     29 H10        199.3210   -28.2530    84.0640 hn         1 SWB       0.362000
     30 H11        204.8910   -31.9730    86.3340 h1         1 SWB       0.060200
     31 H12        207.1830   -33.3710    85.9580 hn         1 SWB       0.335500
@<TRIPOS>BOND
     1     1     2 2   
     2     1    16 1   
     3     1    17 1   
     4     2    19 1   
     5     2    20 1   
     6     3    16 ar  
     7     3    18 ar  
     8     3    19 1   
     9     4    14 ar  
    10     4    18 ar  
    11     4    21 1   
    12     5     6 2   
    13     5     8 1   
    14     5    14 1   
    15     6    12 1   
    16     6    22 1   
    17     7     8 2   
    18     7    10 1   
    19     7    12 1   
    20     8     9 1   
    21     9    13 1   
    22     9    23 1   
    23     9    30 1   
    24    10    11 2   
    25    10    13 1   
    26    12    24 1   
    27    13    31 1   
    28    14    15 ar  
    29    15    16 ar  
    30    15    25 1   
    31    17    26 1   
    32    17    27 1   
    33    17    28 1   
    34    19    29 1   
@<TRIPOS>SUBSTRUCTURE
     1 SWB         1 TEMP              0 ****  ****    0 ROOT
