@<TRIPOS>MOLECULE
SWD
   13    14     1     0     0
SMALL
No Charge or Current Charge


@<TRIPOS>ATOM
      1 N1          52.6830   113.6940    30.3240 nb         1 SWD      -0.140000
      2 C4          51.5210   116.8030    31.8460 cc         1 SWD      -0.151400
      3 C5          51.0830   115.4010    29.8160 ca         1 SWD      -0.301000
      4 N           51.3370   113.5620    28.3090 nb         1 SWD      -0.171000
      5 C           50.7310   114.7250    28.6390 ca         1 SWD       0.252000
      6 C1          52.2840   113.1060    29.1700 ca         1 SWD       0.133900
      7 C2          52.0550   114.8470    30.6130 ca         1 SWD       0.139800
      8 C3          52.2980   115.6580    31.7740 cd         1 SWD      -0.286800
      9 S           50.4190   116.9360    30.4410 ss         1 SWD       0.158400
     10 Cl          49.5000   115.3440    27.5470 cl         1 SWD      -0.141000
     11 H1          51.5030   117.5770    32.6060 h4         1 SWD       0.224000
     12 H2          52.7720   112.1700    28.9050 h5         1 SWD       0.059100
     13 H3          53.0310   115.3950    32.5320 ha         1 SWD       0.225000
@<TRIPOS>BOND
     1     1     6 ar  
     2     1     7 ar  
     3     2     8 2   
     4     2     9 1   
     5     2    11 1   
     6     3     5 ar  
     7     3     7 ar  
     8     3     9 1   
     9     4     5 ar  
    10     4     6 ar  
    11     5    10 1   
    12     6    12 1   
    13     7     8 1   
    14     8    13 1   
@<TRIPOS>SUBSTRUCTURE
     1 SWD         1 TEMP              0 ****  ****    0 ROOT
