@<TRIPOS>MOLECULE
SWD
   13    14     1     0     0
SMALL
abcg2


@<TRIPOS>ATOM
      1 N1          52.6630   113.7030    30.3040 nb         1 SWD      -0.140000
      2 C4          51.5170   116.7570    31.7940 cc         1 SWD      -0.151400
      3 C5          51.0670   115.4150    29.8050 ca         1 SWD      -0.301000
      4 N           51.3350   113.5970    28.3410 nb         1 SWD      -0.171000
      5 C           50.7460   114.7180    28.6530 ca         1 SWD       0.252000
      6 C1          52.2700   113.1410    29.1860 ca         1 SWD       0.133900
      7 C2          52.0600   114.8530    30.6250 ca         1 SWD       0.139800
      8 C3          52.3040   115.6570    31.7810 cd         1 SWD      -0.286800
      9 S           50.4530   116.8880    30.4390 ss         1 SWD       0.158400
     10 CL          49.5380   115.3370    27.5960 cl         1 SWD      -0.141000
     11 H1          51.4950   117.5300    32.5470 h4         1 SWD       0.224000
     12 H2          52.7440   112.2080    28.9040 h5         1 SWD       0.059100
     13 H3          53.0250   115.4140    32.5470 ha         1 SWD       0.225000
@<TRIPOS>BOND
     1     1     6 ar  
     2     1     7 ar  
     3     2     8 2   
     4     2     9 1   
     5     2    11 1   
     6     3     5 ar  
     7     3     7 ar  
     8     3     9 1   
     9     4     5 ar  
    10     4     6 ar  
    11     5    10 1   
    12     6    12 1   
    13     7     8 1   
    14     8    13 1   
@<TRIPOS>SUBSTRUCTURE
     1 SWD         1 TEMP              0 ****  ****    0 ROOT
