@<TRIPOS>MOLECULE
SWF
   39    41     1     0     0
SMALL
bcc


@<TRIPOS>ATOM
      1 C1           3.6090    -0.6510     3.3790 c3         1 SWF      -0.201100
      2 C2           2.2080    -0.9900     2.9570 c          1 SWF       0.569100
      3 O3           1.4090    -1.5030     3.7070 o          1 SWF      -0.508100
      4 C4           1.8690    -0.6570     1.5240 c3         1 SWF      -0.176400
      5 C5           0.3790    -0.7010     1.1960 c3         1 SWF       0.066800
      6 C6          -0.4620     0.3600     1.8820 ca         1 SWF      -0.056300
      7 C7          -1.8490     0.2060     1.8710 ca         1 SWF      -0.118000
      8 C8          -2.6810     1.1350     2.4760 ca         1 SWF      -0.130000
      9 C9          -2.1370     2.2440     3.1130 ca         1 SWF      -0.131000
     10 C10         -0.7600     2.4060     3.1360 ca         1 SWF      -0.130000
     11 C11          0.0690     1.4720     2.5250 ca         1 SWF      -0.118000
     12 C12          0.1500    -0.7050    -0.2990 cc         1 SWF      -0.294400
     13 C13          0.4030     0.3770    -1.0870 cd         1 SWF       0.245900
     14 O14          0.8660     1.4770    -0.5150 oh         1 SWF      -0.467100
     15 C15          0.1760     0.3250    -2.5170 ca         1 SWF      -0.202800
     16 C16          0.3970     1.3910    -3.3970 ca         1 SWF      -0.082000
     17 C17          0.1620     1.2470    -4.7480 ca         1 SWF      -0.153000
     18 C18         -0.3020     0.0300    -5.2470 ca         1 SWF      -0.075000
     19 C19         -0.5320    -1.0350    -4.3990 ca         1 SWF      -0.148000
     20 C20         -0.2910    -0.8780    -3.0400 ca         1 SWF       0.192100
     21 O21         -0.5250    -1.9400    -2.2450 os         1 SWF      -0.335200
     22 C22         -0.3300    -1.9250    -0.8980 c          1 SWF       0.762800
     23 O23         -0.5800    -2.9540    -0.3140 o          1 SWF      -0.559500
     24 H1C1         3.8780    -1.1380     4.3140 hc         1 SWF       0.059033
     25 H1C2         4.3280    -0.9180     2.6040 hc         1 SWF       0.059033
     26 H1C3         3.6850     0.4310     3.5140 hc         1 SWF       0.059033
     27 H4C1         2.3350     0.2940     1.2530 hc         1 SWF       0.063700
     28 H4C2         2.3900    -1.4030     0.9110 hc         1 SWF       0.063700
     29 H5           0.0090    -1.6600     1.5630 hc         1 SWF       0.095700
     30 H7          -2.2830    -0.6590     1.3830 ha         1 SWF       0.128000
     31 H8          -3.7530     0.9910     2.4540 ha         1 SWF       0.127000
     32 H9          -2.7810     2.9730     3.5890 ha         1 SWF       0.127000
     33 H10         -0.3230     3.2650     3.6290 ha         1 SWF       0.127000
     34 H11          1.1390     1.6370     2.5520 ha         1 SWF       0.128000
     35 H14          1.0400     2.1870    -1.1430 ho         1 SWF       0.438000
     36 H16          0.7540     2.3500    -3.0430 ha         1 SWF       0.127000
     37 H17          0.3390     2.0770    -5.4170 ha         1 SWF       0.142000
     38 H18         -0.4850    -0.0840    -6.3070 ha         1 SWF       0.143000
     39 H19         -0.8930    -1.9820    -4.7760 ha         1 SWF       0.162000
@<TRIPOS>BOND
     1     1     2 1   
     2     1    24 1   
     3     1    25 1   
     4     1    26 1   
     5     2     3 2   
     6     2     4 1   
     7     4     5 1   
     8     4    27 1   
     9     4    28 1   
    10     5     6 1   
    11     5    12 1   
    12     5    29 1   
    13     6     7 ar  
    14     6    11 ar  
    15     7     8 ar  
    16     7    30 1   
    17     8     9 ar  
    18     8    31 1   
    19     9    10 ar  
    20     9    32 1   
    21    10    11 ar  
    22    10    33 1   
    23    11    34 1   
    24    12    13 2   
    25    12    22 1   
    26    13    14 1   
    27    13    15 1   
    28    14    35 1   
    29    15    16 ar  
    30    15    20 ar  
    31    16    17 ar  
    32    16    36 1   
    33    17    18 ar  
    34    17    37 1   
    35    18    19 ar  
    36    18    38 1   
    37    19    20 ar  
    38    19    39 1   
    39    20    21 1   
    40    21    22 1   
    41    22    23 2   
@<TRIPOS>SUBSTRUCTURE
     1 SWF         1 TEMP              0 ****  ****    0 ROOT
