@<TRIPOS>MOLECULE
SWF
   39    41     1     0     0
SMALL
No Charge or Current Charge


@<TRIPOS>ATOM
      1 C1           2.4660    -0.1760     3.9710 c3         1 SWF      -0.201100
      2 C2           2.2760    -1.2070     2.8570 c          1 SWF       0.569100
      3 O3           2.3300    -2.4080     3.0850 o          1 SWF      -0.508100
      4 C4           2.0360    -0.6670     1.4420 c3         1 SWF      -0.176400
      5 C5           0.5370    -0.7600     1.0460 c3         1 SWF       0.066800
      6 C6          -0.3200     0.1870     1.8900 ca         1 SWF      -0.056300
      7 C7          -1.2470    -0.3320     2.8180 ca         1 SWF      -0.100000
      8 C8          -2.0300     0.5320     3.6030 ca         1 SWF      -0.112000
      9 C9          -1.8940     1.9230     3.4680 ca         1 SWF      -0.113000
     10 C10         -0.9760     2.4490     2.5460 ca         1 SWF      -0.112000
     11 C11         -0.1930     1.5860     1.7600 ca         1 SWF      -0.100000
     12 C12          0.2280    -0.5950    -0.4500 cc         1 SWF      -0.294400
     13 C13          0.8940     0.1970    -1.3680 cd         1 SWF       0.245900
     14 O14          1.9440     0.9630    -1.0180 oh         1 SWF      -0.506100
     15 C15          0.4700     0.2590    -2.7730 ca         1 SWF      -0.202800
     16 C16          1.1300     1.0390    -3.7560 ca         1 SWF      -0.064000
     17 C17          0.6660     1.0480    -5.0840 ca         1 SWF      -0.135000
     18 C18         -0.4540     0.2840    -5.4480 ca         1 SWF      -0.057000
     19 C19         -1.1090    -0.4900    -4.4780 ca         1 SWF      -0.130000
     20 C20         -0.6450    -0.4990    -3.1540 ca         1 SWF       0.192100
     21 O21         -1.3070    -1.2600    -2.2340 os         1 SWF      -0.335200
     22 C22         -0.9660    -1.3650    -0.9150 c          1 SWF       0.687300
     23 O23         -1.6380    -2.0710    -0.1760 o          1 SWF      -0.484000
     24 H1C1         2.6260    -0.6380     4.9510 hc         1 SWF       0.059033
     25 H1C2         3.2910     0.4910     3.6990 hc         1 SWF       0.059033
     26 H1C3         1.6100     0.5080     3.9790 hc         1 SWF       0.059033
     27 H4C1         2.3530     0.3810     1.4100 hc         1 SWF       0.063700
     28 H4C2         2.6220    -1.2660     0.7360 hc         1 SWF       0.063700
     29 H5           0.2680    -1.7900     1.3180 hc         1 SWF       0.095700
     30 H7          -1.3650    -1.4080     2.9340 ha         1 SWF       0.110000
     31 H8          -2.7410     0.1220     4.3170 ha         1 SWF       0.109000
     32 H9          -2.4990     2.5910     4.0770 ha         1 SWF       0.109000
     33 H10         -0.8690     3.5260     2.4390 ha         1 SWF       0.109000
     34 H11          0.5130     2.0080     1.0500 ha         1 SWF       0.110000
     35 H14          2.2300     1.4320    -1.8250 ho         1 SWF       0.477000
     36 H16          2.0020     1.6440    -3.5190 ha         1 SWF       0.109000
     37 H17          1.1770     1.6490    -5.8330 ha         1 SWF       0.124000
     38 H18         -0.8110     0.2920    -6.4760 ha         1 SWF       0.125000
     39 H19         -1.9770    -1.0850    -4.7510 ha         1 SWF       0.144000
@<TRIPOS>BOND
     1     1     2 1   
     2     1    24 1   
     3     1    25 1   
     4     1    26 1   
     5     2     3 2   
     6     2     4 1   
     7     4     5 1   
     8     4    27 1   
     9     4    28 1   
    10     5     6 1   
    11     5    12 1   
    12     5    29 1   
    13     6     7 ar  
    14     6    11 ar  
    15     7     8 ar  
    16     7    30 1   
    17     8     9 ar  
    18     8    31 1   
    19     9    10 ar  
    20     9    32 1   
    21    10    11 ar  
    22    10    33 1   
    23    11    34 1   
    24    12    13 2   
    25    12    22 1   
    26    13    14 1   
    27    13    15 1   
    28    14    35 1   
    29    15    16 ar  
    30    15    20 ar  
    31    16    17 ar  
    32    16    36 1   
    33    17    18 ar  
    34    17    37 1   
    35    18    19 ar  
    36    18    38 1   
    37    19    20 ar  
    38    19    39 1   
    39    20    21 1   
    40    21    22 1   
    41    22    23 2   
@<TRIPOS>SUBSTRUCTURE
     1 SWF         1 TEMP              0 ****  ****    0 ROOT
