@<TRIPOS>MOLECULE
SWG
   39    41     1     0     0
SMALL
No Charge or Current Charge


@<TRIPOS>ATOM
      1 CD2          3.8680    -0.3350    -0.0240 ca         1 SWG      -0.076800
      2 CE3          4.4220    -1.5850    -0.3400 ca         1 SWG      -0.059000
      3 CZ3          5.8250    -1.7200    -0.2590 ca         1 SWG      -0.146000
      4 CH2          6.6310    -0.6220     0.1300 ca         1 SWG      -0.106000
      5 CZ2          6.0400     0.6220     0.4420 ca         1 SWG      -0.128000
      6 CE2          4.6460     0.7240     0.3520 ca         1 SWG      -0.064200
      7 NE1          3.8370     1.8190     0.6020 na         1 SWG      -0.222700
      8 CD1          2.4850     1.4780     0.3860 cc         1 SWG      -0.107100
      9 CG           2.5010     0.1420    -0.0020 cd         1 SWG      -0.112200
     10 CB2          1.3320    -0.6800    -0.3490 cf         1 SWG      -0.063000
     11 CA2         -0.0090    -0.3950    -0.3200 cc         1 SWG       0.001400
     12 N2          -0.5410     0.8230     0.0690 nc         1 SWG      -0.683300
     13 C2          -1.0590    -1.3610    -0.7050 c          1 SWG       0.542200
     14 O2          -0.9720    -2.5200    -1.0930 o          1 SWG      -0.525000
     15 N3          -2.2030    -0.6160    -0.5140 n          1 SWG      -0.299300
     16 CA3         -3.5760    -1.1420    -0.7430 c3         1 SWG      -0.063000
     17 C3          -4.2060    -1.8170     0.4940 c          1 SWG       0.710000
     18 O3          -4.3730    -1.1380     1.4960 o          1 SWG      -0.716000
     19 OXT         -4.4880    -3.0050     0.4270 o          1 SWG      -0.716000
     20 C1          -1.8630     0.6440    -0.0560 cd         1 SWG       0.460900
     21 CA1         -2.8490     1.7800     0.2640 c3         1 SWG       0.140200
     22 N1          -2.3780     2.6950     1.3760 n8         1 SWG      -0.976200
     23 CB1         -3.1900     2.5620    -1.0400 c3         1 SWG       0.166600
     24 OG1         -4.2850     3.4740    -0.8400 oh         1 SWG      -0.639000
     25 HE3          3.7980    -2.4250    -0.6370 ha         1 SWG       0.119000
     26 HZ3          6.2900    -2.6740    -0.4970 ha         1 SWG       0.104000
     27 HH2          7.7110    -0.7370     0.1890 ha         1 SWG       0.100000
     28 HZ2          6.6490     1.4710     0.7410 ha         1 SWG       0.105000
     29 HE1          4.1720     2.7310     0.8960 hn         1 SWG       0.343000
     30 HD1          1.6640     2.1770     0.5170 h4         1 SWG       0.243000
     31 HB2          1.5570    -1.6940    -0.6790 ha         1 SWG       0.185000
     32 HA31        -4.2360    -0.3250    -1.0560 h1         1 SWG       0.047700
     33 HA32        -3.5470    -1.8730    -1.5610 h1         1 SWG       0.047700
     34 HA1         -3.7810     1.3030     0.5980 h1         1 SWG       0.122700
     35 H11N        -2.2080     2.1300     2.2170 hn         1 SWG       0.400500
     36 H12N        -1.4340     3.0180     1.1310 hn         1 SWG       0.400500
     37 HB11        -2.2980     3.1060    -1.3780 h1         1 SWG       0.018700
     38 HB12        -3.4520     1.8420    -1.8280 h1         1 SWG       0.018700
     39 HG1         -4.3810     3.9920    -1.6690 ho         1 SWG       0.427000
@<TRIPOS>BOND
     1     1     2 ar  
     2     1     6 ar  
     3     1     9 1   
     4     2     3 ar  
     5     2    25 1   
     6     3     4 ar  
     7     3    26 1   
     8     4     5 ar  
     9     4    27 1   
    10     5     6 ar  
    11     5    28 1   
    12     6     7 1   
    13     7     8 1   
    14     7    29 1   
    15     8     9 2   
    16     8    30 1   
    17     9    10 1   
    18    10    11 2   
    19    10    31 1   
    20    11    12 1   
    21    11    13 1   
    22    12    20 2   
    23    13    14 2   
    24    13    15 1   
    25    15    16 1   
    26    15    20 1   
    27    16    17 1   
    28    16    32 1   
    29    16    33 1   
    30    17    18 1   
    31    17    19 1   
    32    20    21 1   
    33    21    22 1   
    34    21    23 1   
    35    21    34 1   
    36    22    35 1   
    37    22    36 1   
    38    23    24 1   
    39    23    37 1   
    40    23    38 1   
    41    24    39 1   
@<TRIPOS>SUBSTRUCTURE
     1 SWG         1 TEMP              0 ****  ****    0 ROOT
