@<TRIPOS>MOLECULE
SWG
   39    41     1     0     0
SMALL
abcg2


@<TRIPOS>ATOM
      1 CD2          3.8080    -0.3740    -0.0280 ca         1 SWG      -0.076800
      2 CE3          4.4790    -1.5300    -0.4350 ca         1 SWG      -0.059000
      3 CZ3          5.8580    -1.5610    -0.3620 ca         1 SWG      -0.146000
      4 CH2          6.5870    -0.4580     0.1110 ca         1 SWG      -0.106000
      5 CZ2          5.9490     0.6980     0.5200 ca         1 SWG      -0.128000
      6 CE2          4.5590     0.7200     0.4430 ca         1 SWG      -0.064200
      7 NE1          3.6710     1.7120     0.7700 na         1 SWG      -0.222700
      8 CD1          2.4090     1.3040     0.5310 cc         1 SWG      -0.107100
      9 CG           2.4210     0.0120     0.0330 cd         1 SWG      -0.112200
     10 CB2          1.3100    -0.7980    -0.3570 cf         1 SWG      -0.063000
     11 CA2         -0.0010    -0.4770    -0.3170 cc         1 SWG       0.001400
     12 N2          -0.5530     0.7260     0.1040 nc         1 SWG      -0.683300
     13 C2          -1.0830    -1.3680    -0.7660 c          1 SWG       0.542200
     14 O2          -1.0530    -2.5200    -1.1610 o          1 SWG      -0.525000
     15 N3          -2.2080    -0.5830    -0.6390 n          1 SWG      -0.299300
     16 CA3         -3.5520    -1.0940    -0.7170 c3         1 SWG      -0.063000
     17 C3          -4.1200    -1.5280     0.6550 c          1 SWG       0.710000
     18 O3          -3.4140    -1.3130     1.6530 o          1 SWG      -0.716000
     19 OXT         -5.2510    -2.0450     0.6070 o          1 SWG      -0.716000
     20 C1          -1.8240     0.6170    -0.0810 cd         1 SWG       0.460900
     21 CA1         -2.7990     1.7240     0.2150 c3         1 SWG       0.140200
     22 N1          -2.3290     2.6580     1.2120 n8         1 SWG      -0.976200
     23 CB1         -3.1150     2.4420    -1.0960 c3         1 SWG       0.166600
     24 OG1         -4.1810     3.3310    -0.8850 oh         1 SWG      -0.639000
     25 HE3          3.9350    -2.3900    -0.8050 ha         1 SWG       0.119000
     26 HZ3          6.3890    -2.4500    -0.6760 ha         1 SWG       0.104000
     27 HH2          7.6670    -0.5140     0.1550 ha         1 SWG       0.100000
     28 HZ2          6.5070     1.5510     0.8840 ha         1 SWG       0.105000
     29 HE1          3.9190     2.6180     1.1350 hn         1 SWG       0.343000
     30 HD1          1.5660     1.9470     0.7240 h4         1 SWG       0.243000
     31 HB2          1.5440    -1.7900    -0.7310 ha         1 SWG       0.185000
     32 HA31        -4.2080    -0.3450    -1.1670 h1         1 SWG       0.047700
     33 HA32        -3.5490    -1.9430    -1.4010 h1         1 SWG       0.047700
     34 HA1         -3.7250     1.2730     0.5850 h1         1 SWG       0.122700
     35 H11N        -2.1960     2.1710     2.0900 hn         1 SWG       0.400500
     36 H12N        -1.4110     2.9980     0.9490 hn         1 SWG       0.400500
     37 HB11        -2.2060     2.9580    -1.4360 h1         1 SWG       0.018700
     38 HB12        -3.3570     1.6970    -1.8670 h1         1 SWG       0.018700
     39 HG1         -4.3450     3.7960    -1.7110 ho         1 SWG       0.427000
@<TRIPOS>BOND
     1     1     2 ar  
     2     1     6 ar  
     3     1     9 1   
     4     2     3 ar  
     5     2    25 1   
     6     3     4 ar  
     7     3    26 1   
     8     4     5 ar  
     9     4    27 1   
    10     5     6 ar  
    11     5    28 1   
    12     6     7 1   
    13     7     8 1   
    14     7    29 1   
    15     8     9 2   
    16     8    30 1   
    17     9    10 1   
    18    10    11 2   
    19    10    31 1   
    20    11    12 1   
    21    11    13 1   
    22    12    20 2   
    23    13    14 2   
    24    13    15 1   
    25    15    16 1   
    26    15    20 1   
    27    16    17 1   
    28    16    32 1   
    29    16    33 1   
    30    17    18 1   
    31    17    19 1   
    32    20    21 1   
    33    21    22 1   
    34    21    23 1   
    35    21    34 1   
    36    22    35 1   
    37    22    36 1   
    38    23    24 1   
    39    23    37 1   
    40    23    38 1   
    41    24    39 1   
@<TRIPOS>SUBSTRUCTURE
     1 SWG         1 TEMP              0 ****  ****    0 ROOT
