@<TRIPOS>MOLECULE
SWI
  230   234     1     0     0
SMALL
No Charge or Current Charge


@<TRIPOS>ATOM
      1 O11          9.4040    -6.8210    23.2530 o          1 SWI      -0.514000
      2 C40         10.4460    -6.1870    23.3440 c          1 SWI       0.608300
      3 O7          11.6970    -6.7360    23.3980 os         1 SWI      -0.440100
      4 C21         11.8470    -8.1730    23.4140 c3         1 SWI       0.192300
      5 C22         11.7640    -8.6620    24.9110 c3         1 SWI      -0.058200
      6 C23         13.0580    -8.3820    25.7730 c3         1 SWI       0.180800
      7 C24         13.0390    -8.7980    27.2880 c3         1 SWI      -0.094200
      8 C25         13.3190   -10.3130    27.5300 c3         1 SWI      -0.069400
      9 C26         13.6990   -10.6750    28.9890 c3         1 SWI      -0.104900
     10 C27         14.0910   -12.1740    29.2000 c6         1 SWI       0.175300
     11 O9          13.0360   -13.0420    28.7130 os         1 SWI      -0.453500
     12 C31         11.8000   -13.0210    29.4630 c6         1 SWI       0.171300
     13 C32         10.8120   -13.9580    28.7310 c3         1 SWI      -0.087100
     14 C30         12.0710   -13.4690    30.9190 c6         1 SWI      -0.125400
     15 C29         13.1550   -12.5610    31.5530 c6         1 SWI       0.173800
     16 O10         13.4400   -12.9150    32.9300 os         1 SWI      -0.452500
     17 C39         13.9820   -14.2200    33.2260 c3         1 SWI       0.146400
     18 C28         14.4310   -12.5400    30.6680 c6         1 SWI      -0.137900
     19 C37         11.7900    -8.2800    28.0520 c3         1 SWI      -0.085100
     20 O8          13.3760    -6.9850    25.7280 oh         1 SWI      -0.653000
     21 C36         11.2520   -10.1290    24.9770 c3         1 SWI      -0.087600
     22 C20         13.1390    -8.4920    22.5870 c3         1 SWI      -0.079200
     23 C35         13.5490    -9.9920    22.5930 c3         1 SWI      -0.083100
     24 C19         12.9840    -7.9280    21.1320 c3         1 SWI       0.185300
     25 O6          12.0480    -8.7290    20.4020 oh         1 SWI      -0.676000
     26 C18         14.2840    -7.8190    20.2960 c3         1 SWI      -0.091400
     27 C17         15.4180    -6.9510    20.9120 c3         1 SWI       0.181300
     28 O5          14.8570    -5.7110    21.3630 oh         1 SWI      -0.680000
     29 C16         16.5810    -6.6400    19.9170 c3         1 SWI      -0.088700
     30 C34         17.1190    -7.9270    19.2180 c3         1 SWI      -0.077600
     31 C15         17.7170    -5.8030    20.6030 c3         1 SWI       0.173300
     32 O4          18.4530    -6.7010    21.4660 os         1 SWI      -0.455500
     33 C38         19.2170    -6.0880    22.5230 c3         1 SWI       0.145900
     34 C14         18.6960    -5.1140    19.6070 c3         1 SWI      -0.101400
     35 C13         18.1110    -3.8530    18.9110 c6         1 SWI       0.168300
     36 C12         18.9110    -3.4650    17.6410 c6         1 SWI      -0.077200
     37 C11         18.5700    -2.0560    17.1900 c2         1 SWI      -0.200700
     38 C10         17.9760    -1.1780    18.0150 c2         1 SWI      -0.256200
     39 O3          18.1750    -2.7730    19.8740 os         1 SWI      -0.467500
     40 C9          17.6000    -1.5070    19.4580 c6         1 SWI       0.204000
     41 C8          16.0520    -1.5380    19.6300 c3         1 SWI      -0.119400
     42 C7          15.5530    -1.7640    21.0790 c3         1 SWI       0.185300
     43 O2          16.1780    -0.8110    21.9490 oh         1 SWI      -0.673500
     44 C6          14.0180    -1.6020    21.2240 c3         1 SWI      -0.069200
     45 C5          13.1930    -2.6110    20.4370 c2         1 SWI      -0.188700
     46 C4          11.9690    -2.4050    19.8890 ce         1 SWI      -0.097200
     47 C33         11.2550    -1.0640    20.0000 c3         1 SWI      -0.054900
     48 C3          11.2190    -3.4590    19.1770 ce         1 SWI      -0.104500
     49 C2          11.4950    -4.7990    19.1740 cf         1 SWI      -0.272200
     50 C1          10.7140    -5.8360    18.4530 c          1 SWI       0.608300
     51 O1          10.9720    -7.0310    18.5270 o          1 SWI      -0.514000
     52 C41         10.5320    -4.7060    23.3080 ce         1 SWI      -0.272200
     53 C42          9.4790    -3.8680    23.0830 cf         1 SWI      -0.104500
     54 C43          9.5420    -2.4060    23.0460 cf         1 SWI      -0.097200
     55 C72         10.6140    -1.7400    23.8950 c3         1 SWI      -0.054900
     56 C44          8.6630    -1.6500    22.3420 c2         1 SWI      -0.188700
     57 C45          7.5540    -2.1420    21.4240 c3         1 SWI      -0.069200
     58 C46          6.1310    -2.0000    22.0140 c3         1 SWI       0.185300
     59 O12          5.1960    -2.5730    21.1030 oh         1 SWI      -0.673500
     60 C47          5.9260    -2.6640    23.3980 c3         1 SWI      -0.119400
     61 C48          4.4840    -2.4960    23.9630 c6         1 SWI       0.204000
     62 O13          3.5670    -3.2890    23.1590 os         1 SWI      -0.467500
     63 C52          3.4890    -4.6960    23.5000 c6         1 SWI       0.168300
     64 C51          2.9350    -4.8440    24.9370 c6         1 SWI      -0.077200
     65 C50          3.7010    -3.9400    25.8870 c2         1 SWI      -0.200700
     66 C49          4.4080    -2.8880    25.4380 c2         1 SWI      -0.256200
     67 C53          2.5980    -5.3920    22.4330 c3         1 SWI      -0.101400
     68 C54          3.3030    -5.5470    21.0550 c3         1 SWI       0.173300
     69 O14          2.3260    -5.8190    20.0240 os         1 SWI      -0.455500
     70 C77          1.5220    -4.7030    19.5920 c3         1 SWI       0.145900
     71 C55          4.3750    -6.6900    21.0240 c3         1 SWI      -0.088700
     72 C73          3.7330    -8.0950    20.8230 c3         1 SWI      -0.077600
     73 C56          5.5200    -6.3690    20.0130 c3         1 SWI       0.181300
     74 O15          6.2760    -5.2600    20.5140 oh         1 SWI      -0.680000
     75 C57          6.5110    -7.5450    19.7810 c3         1 SWI      -0.091400
     76 C58          7.7860    -7.2060    18.9590 c3         1 SWI       0.185300
     77 O16          8.5390    -8.4120    18.7830 oh         1 SWI      -0.676000
     78 C59          7.5550    -6.5200    17.5700 c3         1 SWI      -0.079200
     79 C74          6.6110    -7.3480    16.6490 c3         1 SWI      -0.083100
     80 C60          8.9060    -6.1560    16.8490 c3         1 SWI       0.192300
     81 O17          9.6860    -5.3040    17.7190 os         1 SWI      -0.440100
     82 C61          8.8060    -5.3990    15.4740 c3         1 SWI      -0.058200
     83 C75          8.0690    -4.0350    15.6090 c3         1 SWI      -0.087600
     84 C62         10.2230    -5.2860    14.8010 c3         1 SWI       0.180800
     85 O18         10.7560    -6.6070    14.6330 oh         1 SWI      -0.653000
     86 C63         10.3370    -4.5580    13.4140 c3         1 SWI      -0.094200
     87 C76         10.3830    -3.0090    13.5270 c3         1 SWI      -0.085100
     88 C64          9.3130    -5.0680    12.3550 c3         1 SWI      -0.069400
     89 C65          9.5750    -4.5680    10.9110 c3         1 SWI      -0.104900
     90 C66          8.5670    -5.1060     9.8440 c6         1 SWI       0.175300
     91 O19          8.5310    -6.5550     9.8660 os         1 SWI      -0.453500
     92 C70          9.7310    -7.2220     9.4170 c6         1 SWI       0.171300
     93 C71          9.4920    -8.7410     9.5820 c3         1 SWI      -0.087100
     94 C69         10.0250    -6.8270     7.9510 c6         1 SWI      -0.125400
     95 C68         10.1280    -5.2910     7.8100 c6         1 SWI       0.173800
     96 C67          8.8610    -4.6130     8.4030 c6         1 SWI      -0.137900
     97 O20         10.3110    -4.9570     6.4180 os         1 SWI      -0.452500
     98 C78         10.5890    -3.5810     6.0950 c3         1 SWI       0.146400
     99 H21         11.0150    -8.6340    22.8630 h1         1 SWI       0.085200
    100 H22         10.9610    -8.0710    25.3660 hc         1 SWI       0.065700
    101 H23         13.8890    -8.9300    25.3120 h1         1 SWI       0.029200
    102 H24         13.8970    -8.2860    27.7440 hc         1 SWI       0.035200
    103 H251        12.4460   -10.9090    27.2530 hc         1 SWI       0.051950
    104 H252        14.1380   -10.6340    26.8730 hc         1 SWI       0.051950
    105 H261        14.5500   -10.0500    29.2860 hc         1 SWI       0.041450
    106 H262        12.8800   -10.3920    29.6560 hc         1 SWI       0.041450
    107 H27         14.9850   -12.3620    28.5860 h1         1 SWI       0.069700
    108 H31         11.3770   -12.0060    29.4530 h1         1 SWI       0.030700
    109 H321         9.8410   -13.9800    29.2400 hc         1 SWI       0.045033
    110 H322        10.6390   -13.6170    27.7030 hc         1 SWI       0.045033
    111 H323        11.1920   -14.9850    28.6870 hc         1 SWI       0.045033
    112 H301        11.1460   -13.4160    31.5080 hc         1 SWI       0.058950
    113 H302        12.3950   -14.5170    30.9170 hc         1 SWI       0.058950
    114 H29         12.7500   -11.5390    31.5800 h1         1 SWI       0.049200
    115 H391        14.1340   -14.3250    34.3080 h1         1 SWI       0.027700
    116 H392        13.3000   -15.0180    32.9080 h1         1 SWI       0.027700
    117 H393        14.9530   -14.3700    32.7390 h1         1 SWI       0.027700
    118 H281        14.9130   -13.5260    30.6700 hc         1 SWI       0.056200
    119 H282        15.1630   -11.8300    31.0750 hc         1 SWI       0.056200
    120 H371        11.9280    -8.3640    29.1360 hc         1 SWI       0.035367
    121 H372        11.6040    -7.2230    27.8290 hc         1 SWI       0.035367
    122 H373        10.8930    -8.8480    27.7820 hc         1 SWI       0.035367
    123 HO8         14.1600    -6.8520    26.3010 ho         1 SWI       0.437000
    124 H361        10.7640   -10.3270    25.9370 hc         1 SWI       0.038867
    125 H362        10.4970   -10.3200    24.2050 hc         1 SWI       0.038867
    126 H363        12.0610   -10.8540    24.8460 hc         1 SWI       0.038867
    127 H20         13.9560    -7.9430    23.0680 hc         1 SWI       0.061700
    128 H351        14.3990   -10.1750    21.9260 hc         1 SWI       0.036533
    129 H352        13.8640   -10.3170    23.5900 hc         1 SWI       0.036533
    130 H353        12.7190   -10.6310    22.2690 hc         1 SWI       0.036533
    131 H19         12.5830    -6.9100    21.2010 h1         1 SWI       0.045700
    132 HO6         11.7280    -8.1690    19.6510 ho         1 SWI       0.469500
    133 H181        14.6650    -8.8270    20.1010 hc         1 SWI       0.056200
    134 H182        14.0220    -7.3960    19.3180 hc         1 SWI       0.056200
    135 H17         15.8400    -7.4980    21.7660 h1         1 SWI       0.037200
    136 HO5         14.5180    -5.8600    22.2710 ho         1 SWI       0.451000
    137 H16         16.1510    -6.0150    19.1250 hc         1 SWI       0.059200
    138 H341        17.9750    -7.7170    18.5680 hc         1 SWI       0.037367
    139 H342        17.4300    -8.6750    19.9570 hc         1 SWI       0.037367
    140 H343        16.3520    -8.3790    18.5780 hc         1 SWI       0.037367
    141 H15         17.2570    -5.0090    21.2070 h1         1 SWI       0.039700
    142 H381        19.6500    -6.8600    23.1720 h1         1 SWI       0.027867
    143 H382        20.0430    -5.4840    22.1290 h1         1 SWI       0.027867
    144 H383        18.5790    -5.4450    23.1430 h1         1 SWI       0.027867
    145 H141        19.6160    -4.8200    20.1220 hc         1 SWI       0.058200
    146 H142        19.0160    -5.8340    18.8490 hc         1 SWI       0.058200
    147 H13         17.0630    -4.0330    18.6340 h1         1 SWI       0.044200
    148 H121        19.9910    -3.5350    17.8320 hc         1 SWI       0.058200
    149 H122        18.6860    -4.1790    16.8370 hc         1 SWI       0.058200
    150 H11         18.8290    -1.7850    16.1640 ha         1 SWI       0.177500
    151 H10         17.7390    -0.1670    17.6780 ha         1 SWI       0.180500
    152 H9          18.0030    -0.7190    20.1130 h1         1 SWI       0.081200
    153 H81         15.6450    -0.5830    19.2760 hc         1 SWI       0.060950
    154 H82         15.6160    -2.3040    18.9790 hc         1 SWI       0.060950
    155 H7          15.8300    -2.7820    21.3860 h1         1 SWI       0.034700
    156 HO2         16.0050    -1.1070    22.8690 ho         1 SWI       0.452500
    157 H61A        13.7580    -1.6910    22.2850 hc         1 SWI       0.061950
    158 H62A        13.7570    -0.5780    20.9320 hc         1 SWI       0.061950
    159 H5          13.6850    -3.5770    20.3420 ha         1 SWI       0.177500
    160 H331        10.1900    -1.1360    19.7500 hc         1 SWI       0.042033
    161 H332        11.3120    -0.6620    21.0190 hc         1 SWI       0.042033
    162 H333        11.7020    -0.3250    19.3250 hc         1 SWI       0.042033
    163 H3          10.3470    -3.1150    18.6170 ha         1 SWI       0.193500
    164 H2          12.3390    -5.1790    19.7390 ha         1 SWI       0.201000
    165 H41         11.5280    -4.2970    23.4550 ha         1 SWI       0.201000
    166 H42          8.5060    -4.3260    22.8950 ha         1 SWI       0.193500
    167 H721        10.3600    -0.7000    24.1310 hc         1 SWI       0.042033
    168 H722        10.7520    -2.2620    24.8490 hc         1 SWI       0.042033
    169 H723        11.5780    -1.7340    23.3750 hc         1 SWI       0.042033
    170 H44          8.7510    -0.5630    22.3780 ha         1 SWI       0.177500
    171 H451         7.5900    -1.5690    20.4900 hc         1 SWI       0.061950
    172 H452         7.7340    -3.1790    21.1270 hc         1 SWI       0.061950
    173 H46          5.9210    -0.9280    22.1270 h1         1 SWI       0.034700
    174 HO12         4.4080    -2.7830    21.6660 ho         1 SWI       0.452500
    175 H471         6.2040    -3.7220    23.3450 hc         1 SWI       0.060950
    176 H472         6.6310    -2.2050    24.1010 hc         1 SWI       0.060950
    177 H48          4.2010    -1.4370    23.8660 h1         1 SWI       0.081200
    178 H52          4.4960    -5.1330    23.4710 h1         1 SWI       0.044200
    179 H511         1.8660    -4.5940    24.9660 hc         1 SWI       0.058200
    180 H512         3.0280    -5.8900    25.2590 hc         1 SWI       0.058200
    181 H50          3.6610    -4.1860    26.9500 ha         1 SWI       0.177500
    182 H49          4.9550    -2.2480    26.1320 ha         1 SWI       0.180500
    183 H531         2.2990    -6.3840    22.7920 hc         1 SWI       0.058200
    184 H532         1.6700    -4.8220    22.3330 hc         1 SWI       0.058200
    185 H54          3.7950    -4.5970    20.8300 h1         1 SWI       0.039700
    186 H771         0.8930    -4.9990    18.7430 h1         1 SWI       0.027867
    187 H772         0.8580    -4.3480    20.3890 h1         1 SWI       0.027867
    188 H773         2.1560    -3.8670    19.2690 h1         1 SWI       0.027867
    189 H55          4.8500    -6.7280    22.0110 hc         1 SWI       0.059200
    190 H731         4.4480    -8.8920    21.0570 hc         1 SWI       0.037367
    191 H732         2.8700    -8.2350    21.4840 hc         1 SWI       0.037367
    192 H733         3.3960    -8.2310    19.7890 hc         1 SWI       0.037367
    193 H56          5.0660    -6.1080    19.0470 h1         1 SWI       0.037200
    194 HO15         5.7090    -4.4540    20.5020 ho         1 SWI       0.451000
    195 H571         6.8330    -7.9250    20.7580 hc         1 SWI       0.056200
    196 H572         5.9850    -8.3720    19.2910 hc         1 SWI       0.056200
    197 H58          8.3690    -6.5110    19.5780 h1         1 SWI       0.045700
    198 HO16         9.4750    -8.1280    18.6580 ho         1 SWI       0.469500
    199 H59          7.0420    -5.5790    17.7880 hc         1 SWI       0.061700
    200 H741         6.3340    -6.7820    15.7530 hc         1 SWI       0.036533
    201 H742         7.0910    -8.2810    16.3320 hc         1 SWI       0.036533
    202 H743         5.6730    -7.6000    17.1540 hc         1 SWI       0.036533
    203 H60          9.4260    -7.1020    16.6500 h1         1 SWI       0.085200
    204 H61          8.2030    -6.0220    14.8040 hc         1 SWI       0.065700
    205 H751         7.7910    -3.6400    14.6280 hc         1 SWI       0.038867
    206 H752         7.1300    -4.1310    16.1620 hc         1 SWI       0.038867
    207 H753         8.6950    -3.2960    16.1230 hc         1 SWI       0.038867
    208 H62         10.8740    -4.7400    15.4980 h1         1 SWI       0.029200
    209 HO18        11.6530    -6.5060    14.2500 ho         1 SWI       0.437000
    210 H63         11.3290    -4.8250    13.0260 hc         1 SWI       0.035200
    211 H761        10.8700    -2.5760    12.6450 hc         1 SWI       0.035367
    212 H762         9.3860    -2.5640    13.5960 hc         1 SWI       0.035367
    213 H763        10.9640    -2.6960    14.4030 hc         1 SWI       0.035367
    214 H641         9.3290    -6.1650    12.3520 hc         1 SWI       0.051950
    215 H642         8.2980    -4.7760    12.6460 hc         1 SWI       0.051950
    216 H651         9.5150    -3.4740    10.9070 hc         1 SWI       0.041450
    217 H652        10.6080    -4.8060    10.6350 hc         1 SWI       0.041450
    218 H66          7.5680    -4.7440    10.1320 h1         1 SWI       0.069700
    219 H70         10.5760    -6.9390    10.0600 h1         1 SWI       0.030700
    220 H711        10.3740    -9.3120     9.2720 hc         1 SWI       0.045033
    221 H712         9.2850    -8.9930    10.6290 hc         1 SWI       0.045033
    222 H713         8.6420    -9.0800     8.9780 hc         1 SWI       0.045033
    223 H691        10.9610    -7.2940     7.6190 hc         1 SWI       0.058950
    224 H692         9.2290    -7.2070     7.2970 hc         1 SWI       0.058950
    225 H68         11.0140    -4.9490     8.3650 h1         1 SWI       0.049200
    226 H671         7.9950    -4.8330     7.7650 hc         1 SWI       0.056200
    227 H672         8.9730    -3.5210     8.4120 hc         1 SWI       0.056200
    228 H781        10.8050    -3.4800     5.0240 h1         1 SWI       0.027700
    229 H782         9.7300    -2.9380     6.3260 h1         1 SWI       0.027700
    230 H783        11.4600    -3.2170     6.6550 h1         1 SWI       0.027700
@<TRIPOS>BOND
     1     1     2 2   
     2     2     3 1   
     3     2    52 1   
     4     3     4 1   
     5     4     5 1   
     6     4    22 1   
     7     4    99 1   
     8     5     6 1   
     9     5    21 1   
    10     5   100 1   
    11     6     7 1   
    12     6    20 1   
    13     6   101 1   
    14     7     8 1   
    15     7    19 1   
    16     7   102 1   
    17     8     9 1   
    18     8   103 1   
    19     8   104 1   
    20     9    10 1   
    21     9   105 1   
    22     9   106 1   
    23    10    11 1   
    24    10    18 1   
    25    10   107 1   
    26    11    12 1   
    27    12    13 1   
    28    12    14 1   
    29    12   108 1   
    30    13   109 1   
    31    13   110 1   
    32    13   111 1   
    33    14    15 1   
    34    14   112 1   
    35    14   113 1   
    36    15    16 1   
    37    15    18 1   
    38    15   114 1   
    39    16    17 1   
    40    17   115 1   
    41    17   116 1   
    42    17   117 1   
    43    18   118 1   
    44    18   119 1   
    45    19   120 1   
    46    19   121 1   
    47    19   122 1   
    48    20   123 1   
    49    21   124 1   
    50    21   125 1   
    51    21   126 1   
    52    22    23 1   
    53    22    24 1   
    54    22   127 1   
    55    23   128 1   
    56    23   129 1   
    57    23   130 1   
    58    24    25 1   
    59    24    26 1   
    60    24   131 1   
    61    25   132 1   
    62    26    27 1   
    63    26   133 1   
    64    26   134 1   
    65    27    28 1   
    66    27    29 1   
    67    27   135 1   
    68    28   136 1   
    69    29    30 1   
    70    29    31 1   
    71    29   137 1   
    72    30   138 1   
    73    30   139 1   
    74    30   140 1   
    75    31    32 1   
    76    31    34 1   
    77    31   141 1   
    78    32    33 1   
    79    33   142 1   
    80    33   143 1   
    81    33   144 1   
    82    34    35 1   
    83    34   145 1   
    84    34   146 1   
    85    35    36 1   
    86    35    39 1   
    87    35   147 1   
    88    36    37 1   
    89    36   148 1   
    90    36   149 1   
    91    37    38 2   
    92    37   150 1   
    93    38    40 1   
    94    38   151 1   
    95    39    40 1   
    96    40    41 1   
    97    40   152 1   
    98    41    42 1   
    99    41   153 1   
   100    41   154 1   
   101    42    43 1   
   102    42    44 1   
   103    42   155 1   
   104    43   156 1   
   105    44    45 1   
   106    44   157 1   
   107    44   158 1   
   108    45    46 2   
   109    45   159 1   
   110    46    47 1   
   111    46    48 1   
   112    47   160 1   
   113    47   161 1   
   114    47   162 1   
   115    48    49 2   
   116    48   163 1   
   117    49    50 1   
   118    49   164 1   
   119    50    51 2   
   120    50    81 1   
   121    52    53 2   
   122    52   165 1   
   123    53    54 1   
   124    53   166 1   
   125    54    55 1   
   126    54    56 2   
   127    55   167 1   
   128    55   168 1   
   129    55   169 1   
   130    56    57 1   
   131    56   170 1   
   132    57    58 1   
   133    57   171 1   
   134    57   172 1   
   135    58    59 1   
   136    58    60 1   
   137    58   173 1   
   138    59   174 1   
   139    60    61 1   
   140    60   175 1   
   141    60   176 1   
   142    61    62 1   
   143    61    66 1   
   144    61   177 1   
   145    62    63 1   
   146    63    64 1   
   147    63    67 1   
   148    63   178 1   
   149    64    65 1   
   150    64   179 1   
   151    64   180 1   
   152    65    66 2   
   153    65   181 1   
   154    66   182 1   
   155    67    68 1   
   156    67   183 1   
   157    67   184 1   
   158    68    69 1   
   159    68    71 1   
   160    68   185 1   
   161    69    70 1   
   162    70   186 1   
   163    70   187 1   
   164    70   188 1   
   165    71    72 1   
   166    71    73 1   
   167    71   189 1   
   168    72   190 1   
   169    72   191 1   
   170    72   192 1   
   171    73    74 1   
   172    73    75 1   
   173    73   193 1   
   174    74   194 1   
   175    75    76 1   
   176    75   195 1   
   177    75   196 1   
   178    76    77 1   
   179    76    78 1   
   180    76   197 1   
   181    77   198 1   
   182    78    79 1   
   183    78    80 1   
   184    78   199 1   
   185    79   200 1   
   186    79   201 1   
   187    79   202 1   
   188    80    81 1   
   189    80    82 1   
   190    80   203 1   
   191    82    83 1   
   192    82    84 1   
   193    82   204 1   
   194    83   205 1   
   195    83   206 1   
   196    83   207 1   
   197    84    85 1   
   198    84    86 1   
   199    84   208 1   
   200    85   209 1   
   201    86    87 1   
   202    86    88 1   
   203    86   210 1   
   204    87   211 1   
   205    87   212 1   
   206    87   213 1   
   207    88    89 1   
   208    88   214 1   
   209    88   215 1   
   210    89    90 1   
   211    89   216 1   
   212    89   217 1   
   213    90    91 1   
   214    90    96 1   
   215    90   218 1   
   216    91    92 1   
   217    92    93 1   
   218    92    94 1   
   219    92   219 1   
   220    93   220 1   
   221    93   221 1   
   222    93   222 1   
   223    94    95 1   
   224    94   223 1   
   225    94   224 1   
   226    95    96 1   
   227    95    97 1   
   228    95   225 1   
   229    96   226 1   
   230    96   227 1   
   231    97    98 1   
   232    98   228 1   
   233    98   229 1   
   234    98   230 1   
@<TRIPOS>SUBSTRUCTURE
     1 SWI         1 TEMP              0 ****  ****    0 ROOT
