@<TRIPOS>MOLECULE
SWI
  230   234     1     0     0
SMALL
abcg2


@<TRIPOS>ATOM
      1 O11          9.4860    -6.6570    22.8180 o          1 SWI      -0.514000
      2 C40         10.4310    -6.1090    23.3410 c          1 SWI       0.608300
      3 O7          11.5620    -6.7080    23.6900 os         1 SWI      -0.440100
      4 C21         11.7780    -8.1080    23.4150 c3         1 SWI       0.192300
      5 C22         11.8890    -8.8450    24.7720 c3         1 SWI      -0.058200
      6 C23         13.2590    -8.7160    25.4530 c3         1 SWI       0.180800
      7 C24         13.3960    -9.3520    26.8570 c3         1 SWI      -0.094200
      8 C25         13.6930   -10.8560    26.8290 c3         1 SWI      -0.069400
      9 C26         14.2720   -11.3730    28.1420 c3         1 SWI      -0.104900
     10 C27         14.7650   -12.8170    28.0520 c6         1 SWI       0.175300
     11 O9          13.7880   -13.7070    27.5440 os         1 SWI      -0.453500
     12 C31         12.7060   -13.9740    28.4170 c6         1 SWI       0.171300
     13 C32         11.7520   -14.8970    27.6890 c3         1 SWI      -0.087100
     14 C30         13.2070   -14.5790    29.7260 c6         1 SWI      -0.125400
     15 C29         14.2210   -13.6420    30.3730 c6         1 SWI       0.173800
     16 O10         14.6930   -14.0800    31.6320 os         1 SWI      -0.452500
     17 C39         15.3790   -15.3080    31.6690 c3         1 SWI       0.146400
     18 C28         15.3340   -13.3380    29.3750 c6         1 SWI      -0.137900
     19 C37         12.2400    -8.9940    27.7860 c3         1 SWI      -0.085100
     20 O8          13.5410    -7.3300    25.5370 oh         1 SWI      -0.653000
     21 C36         11.4130   -10.2950    24.6400 c3         1 SWI      -0.087600
     22 C20         12.9620    -8.2060    22.4360 c3         1 SWI      -0.079200
     23 C35         13.2870    -9.6590    22.0900 c3         1 SWI      -0.083100
     24 C19         12.6860    -7.3830    21.1700 c3         1 SWI       0.185300
     25 O6          11.6320    -8.0100    20.4680 oh         1 SWI      -0.676000
     26 C18         13.8980    -7.2060    20.2500 c3         1 SWI      -0.091400
     27 C17         15.1410    -6.6130    20.9050 c3         1 SWI       0.181300
     28 O5          14.7230    -5.5320    21.7210 oh         1 SWI      -0.680000
     29 C16         16.1720    -6.1600    19.8540 c3         1 SWI      -0.088700
     30 C34         16.5680    -7.3300    18.9520 c3         1 SWI      -0.077600
     31 C15         17.3890    -5.4830    20.4950 c3         1 SWI       0.173300
     32 O4          18.1450    -6.4900    21.1370 os         1 SWI      -0.455500
     33 C38         18.9850    -6.0260    22.1610 c3         1 SWI       0.145900
     34 C14         18.2210    -4.6870    19.4840 c3         1 SWI      -0.101400
     35 C13         17.6370    -3.3260    19.1380 c6         1 SWI       0.168300
     36 C12         18.3580    -2.6880    17.9580 c6         1 SWI      -0.077200
     37 C11         18.0280    -1.2330    17.8600 c2         1 SWI      -0.200700
     38 C10         17.4660    -0.5760    18.8680 c2         1 SWI      -0.256200
     39 O3          17.7550    -2.5050    20.2890 os         1 SWI      -0.467500
     40 C9          17.1680    -1.2250    20.1850 c6         1 SWI       0.204000
     41 C8          15.6590    -1.2290    20.4560 c3         1 SWI      -0.119400
     42 C7          15.2550    -1.8430    21.7870 c3         1 SWI       0.185300
     43 O2          15.9720    -1.1820    22.8090 oh         1 SWI      -0.673500
     44 C6          13.7460    -1.7160    22.0320 c3         1 SWI      -0.069200
     45 C5          12.9120    -2.4500    21.0370 c2         1 SWI      -0.188700
     46 C4          11.8240    -2.0020    20.3920 ce         1 SWI      -0.097200
     47 C33         11.2730    -0.6080    20.5020 c3         1 SWI      -0.054900
     48 C3          11.0670    -2.8710    19.4860 ce         1 SWI      -0.104500
     49 C2          11.0270    -4.2100    19.5170 cf         1 SWI      -0.272200
     50 C1          10.2800    -5.0380    18.5640 c          1 SWI       0.608300
     51 O1          10.4380    -6.2470    18.4970 o          1 SWI      -0.514000
     52 C41         10.4860    -4.6750    23.6800 ce         1 SWI      -0.272200
     53 C42          9.5480    -3.8300    23.2280 cf         1 SWI      -0.104500
     54 C43          9.4960    -2.4060    23.5190 cf         1 SWI      -0.097200
     55 C72         10.4730    -1.8540    24.5160 c3         1 SWI      -0.054900
     56 C44          8.6020    -1.5980    22.9240 c2         1 SWI      -0.188700
     57 C45          7.6130    -1.9320    21.8580 c3         1 SWI      -0.069200
     58 C46          6.1680    -1.6860    22.2920 c3         1 SWI       0.185300
     59 O12          5.3760    -1.7730    21.1160 oh         1 SWI      -0.673500
     60 C47          5.7350    -2.6590    23.3840 c3         1 SWI      -0.119400
     61 C48          4.3040    -2.4420    23.8930 c6         1 SWI       0.204000
     62 O13          3.3250    -2.8150    22.9370 os         1 SWI      -0.467500
     63 C52          2.9870    -4.1980    22.9480 c6         1 SWI       0.168300
     64 C51          2.3050    -4.5400    24.2620 c6         1 SWI      -0.077200
     65 C50          3.1310    -4.0270    25.4010 c2         1 SWI      -0.200700
     66 C49          4.0680    -3.1040    25.2170 c2         1 SWI      -0.256200
     67 C53          2.1240    -4.4880    21.7310 c3         1 SWI      -0.101400
     68 C54          2.9170    -4.4130    20.4230 c3         1 SWI       0.173300
     69 O14          2.0880    -4.2300    19.2960 os         1 SWI      -0.455500
     70 C77          1.6610    -2.9060    19.1070 c3         1 SWI       0.145900
     71 C55          3.7740    -5.6700    20.1950 c3         1 SWI      -0.088700
     72 C73          2.9710    -6.7920    19.5410 c3         1 SWI      -0.077600
     73 C56          5.0640    -5.3210    19.4300 c3         1 SWI       0.181300
     74 O15          5.9240    -4.5350    20.2350 oh         1 SWI      -0.680000
     75 C57          5.8510    -6.5580    19.0230 c3         1 SWI      -0.091400
     76 C58          7.2380    -6.2750    18.4470 c3         1 SWI       0.185300
     77 O16          7.7720    -7.5290    18.0610 oh         1 SWI      -0.676000
     78 C59          7.2350    -5.2710    17.2760 c3         1 SWI      -0.079200
     79 C74          6.3490    -5.7440    16.1240 c3         1 SWI      -0.083100
     80 C60          8.6620    -4.9900    16.7710 c3         1 SWI       0.192300
     81 O17          9.4220    -4.3660    17.8300 os         1 SWI      -0.440100
     82 C61          8.7320    -4.0400    15.5730 c3         1 SWI      -0.058200
     83 C75          8.1960    -2.6470    15.9020 c3         1 SWI      -0.087600
     84 C62         10.1410    -3.9490    14.9250 c3         1 SWI       0.180800
     85 O18         11.0030    -4.9040    15.5110 oh         1 SWI      -0.653000
     86 C63         10.1040    -4.1220    13.3930 c3         1 SWI      -0.094200
     87 C76          9.3400    -2.9870    12.7190 c3         1 SWI      -0.085100
     88 C64          9.5780    -5.4990    12.9750 c3         1 SWI      -0.069400
     89 C65          9.8100    -5.8360    11.5070 c3         1 SWI      -0.104900
     90 C66          9.0980    -7.1230    11.0810 c6         1 SWI       0.175300
     91 O19          9.4220    -8.2350    11.8950 os         1 SWI      -0.453500
     92 C70         10.7310    -8.7450    11.7180 c6         1 SWI       0.171300
     93 C71         10.9040    -9.9000    12.6840 c3         1 SWI      -0.087100
     94 C69         10.9540    -9.1690    10.2710 c6         1 SWI      -0.125400
     95 C68         10.6840    -8.0130     9.3230 c6         1 SWI       0.173800
     96 C67          9.2910    -7.4550     9.6000 c6         1 SWI      -0.137900
     97 O20         10.8270    -8.4940     8.0040 os         1 SWI      -0.452500
     98 C78         10.8740    -7.4930     7.0200 c3         1 SWI       0.146400
     99 H21         10.8900    -8.4970    22.9140 h1         1 SWI       0.085200
    100 H22         11.1550    -8.3460    25.4150 hc         1 SWI       0.065700
    101 H23         14.0110    -9.2080    24.8170 h1         1 SWI       0.029200
    102 H24         14.3020    -8.8890    27.2720 hc         1 SWI       0.035200
    103 H251        12.7920   -11.4190    26.5830 hc         1 SWI       0.051950
    104 H252        14.4100   -11.0600    26.0260 hc         1 SWI       0.051950
    105 H261        15.1340   -10.7600    28.4260 hc         1 SWI       0.041450
    106 H262        13.5450   -11.2520    28.9490 hc         1 SWI       0.041450
    107 H27         15.5690   -12.8370    27.3090 h1         1 SWI       0.069700
    108 H31         12.1720   -13.0400    28.6510 h1         1 SWI       0.030700
    109 H321        10.8840   -15.1100    28.3130 hc         1 SWI       0.045033
    110 H322        11.3940   -14.4440    26.7630 hc         1 SWI       0.045033
    111 H323        12.2320   -15.8460    27.4450 hc         1 SWI       0.045033
    112 H301        12.3610   -14.7490    30.3970 hc         1 SWI       0.058950
    113 H302        13.6560   -15.5540    29.5100 hc         1 SWI       0.058950
    114 H29         13.7020   -12.7060    30.6100 h1         1 SWI       0.049200
    115 H391        15.6760   -15.4760    32.7050 h1         1 SWI       0.027700
    116 H392        14.7610   -16.1550    31.3580 h1         1 SWI       0.027700
    117 H393        16.2880   -15.3120    31.0580 h1         1 SWI       0.027700
    118 H281        15.9090   -14.2450    29.1660 hc         1 SWI       0.056200
    119 H282        16.0320   -12.6050    29.7900 hc         1 SWI       0.056200
    120 H371        12.4630    -9.2600    28.8190 hc         1 SWI       0.035367
    121 H372        12.0340    -7.9230    27.7670 hc         1 SWI       0.035367
    122 H373        11.3230    -9.5170    27.5090 hc         1 SWI       0.035367
    123 HO8         14.4370    -7.2330    25.8730 ho         1 SWI       0.437000
    124 H361        11.1000   -10.6950    25.6020 hc         1 SWI       0.038867
    125 H362        10.5470   -10.3510    23.9790 hc         1 SWI       0.038867
    126 H363        12.1730   -10.9630    24.2400 hc         1 SWI       0.038867
    127 H20         13.8340    -7.7680    22.9280 hc         1 SWI       0.061700
    128 H351        14.0430    -9.7140    21.3050 hc         1 SWI       0.036533
    129 H352        13.6920   -10.1960    22.9450 hc         1 SWI       0.036533
    130 H353        12.4110   -10.2060    21.7420 hc         1 SWI       0.036533
    131 H19         12.3870    -6.3770    21.4810 h1         1 SWI       0.045700
    132 HO6         11.2950    -7.3940    19.8010 ho         1 SWI       0.469500
    133 H181        14.1580    -8.1660    19.7990 hc         1 SWI       0.056200
    134 H182        13.5840    -6.5590    19.4200 hc         1 SWI       0.056200
    135 H17         15.6070    -7.3880    21.5300 h1         1 SWI       0.037200
    136 HO5         15.3840    -5.3740    22.4010 ho         1 SWI       0.451000
    137 H16         15.6760    -5.4020    19.2350 hc         1 SWI       0.059200
    138 H341        17.4010    -7.0820    18.2930 hc         1 SWI       0.037367
    139 H342        16.8620    -8.2050    19.5330 hc         1 SWI       0.037367
    140 H343        15.7410    -7.6250    18.3080 hc         1 SWI       0.037367
    141 H15         17.0370    -4.7660    21.2500 h1         1 SWI       0.039700
    142 H381        19.4440    -6.8930    22.6340 h1         1 SWI       0.027867
    143 H382        19.7890    -5.3760    21.7970 h1         1 SWI       0.027867
    144 H383        18.4290    -5.4700    22.9260 h1         1 SWI       0.027867
    145 H141        19.2320    -4.5240    19.8710 hc         1 SWI       0.058200
    146 H142        18.3420    -5.2530    18.5560 hc         1 SWI       0.058200
    147 H13         16.5770    -3.4390    18.8660 h1         1 SWI       0.044200
    148 H121        19.4430    -2.8250    18.0510 hc         1 SWI       0.058200
    149 H122        18.0690    -3.2030    17.0380 hc         1 SWI       0.058200
    150 H11         18.2530    -0.7190    16.9320 ha         1 SWI       0.177500
    151 H10         17.2060     0.4730    18.7730 ha         1 SWI       0.180500
    152 H9          17.6480    -0.6290    20.9690 h1         1 SWI       0.081200
    153 H81         15.3070    -0.1920    20.4090 hc         1 SWI       0.060950
    154 H82         15.1380    -1.7590    19.6530 hc         1 SWI       0.060950
    155 H7          15.5100    -2.9110    21.7690 h1         1 SWI       0.034700
    156 HO2         15.8260    -1.6530    23.6350 ho         1 SWI       0.452500
    157 H61A        13.5350    -2.1470    23.0210 hc         1 SWI       0.061950
    158 H62A        13.4800    -0.6600    22.0930 hc         1 SWI       0.061950
    159 H5          13.2370    -3.4700    20.8470 ha         1 SWI       0.177500
    160 H331        11.1600    -0.1620    19.5120 hc         1 SWI       0.042033
    161 H332        10.2800    -0.6230    20.9560 hc         1 SWI       0.042033
    162 H333        11.8950     0.0550    21.0980 hc         1 SWI       0.042033
    163 H3          10.4740    -2.3500    18.7390 ha         1 SWI       0.193500
    164 H2          11.5750    -4.7650    20.2680 ha         1 SWI       0.201000
    165 H41         11.3190    -4.3390    24.2840 ha         1 SWI       0.201000
    166 H42          8.7600    -4.2420    22.6090 ha         1 SWI       0.193500
    167 H721        10.2940    -0.7960    24.7000 hc         1 SWI       0.042033
    168 H722        10.4130    -2.3800    25.4710 hc         1 SWI       0.042033
    169 H723        11.5020    -1.9580    24.1620 hc         1 SWI       0.042033
    170 H44          8.6070    -0.5520    23.2210 ha         1 SWI       0.177500
    171 H451         7.8220    -1.2830    20.9990 hc         1 SWI       0.061950
    172 H452         7.7170    -2.9580    21.5010 hc         1 SWI       0.061950
    173 H46          6.0980    -0.6660    22.7000 h1         1 SWI       0.034700
    174 HO12         4.4460    -1.7530    21.3720 ho         1 SWI       0.452500
    175 H471         5.8710    -3.6930    23.0480 hc         1 SWI       0.060950
    176 H472         6.4140    -2.5250    24.2310 hc         1 SWI       0.060950
    177 H48          4.1650    -1.3620    24.0380 h1         1 SWI       0.081200
    178 H52          3.9050    -4.8000    22.8940 h1         1 SWI       0.044200
    179 H511         1.2910    -4.1250    24.2960 hc         1 SWI       0.058200
    180 H512         2.1920    -5.6250    24.3400 hc         1 SWI       0.058200
    181 H50          2.9660    -4.4440    26.3880 ha         1 SWI       0.177500
    182 H49          4.6880    -2.7660    26.0400 ha         1 SWI       0.180500
    183 H531         1.6850    -5.4830    21.8450 hc         1 SWI       0.058200
    184 H532         1.2880    -3.7810    21.7250 hc         1 SWI       0.058200
    185 H54          3.5820    -3.5450    20.5000 h1         1 SWI       0.039700
    186 H771         1.0580    -2.8770    18.2000 h1         1 SWI       0.027867
    187 H772         1.0470    -2.5310    19.9330 h1         1 SWI       0.027867
    188 H773         2.5060    -2.2170    18.9800 h1         1 SWI       0.027867
    189 H55          4.1000    -6.0310    21.1770 hc         1 SWI       0.059200
    190 H731         3.4960    -7.7430    19.6260 hc         1 SWI       0.037367
    191 H732         2.0000    -6.9240    20.0210 hc         1 SWI       0.037367
    192 H733         2.7920    -6.6060    18.4810 hc         1 SWI       0.037367
    193 H56          4.7770    -4.7690    18.5210 h1         1 SWI       0.037200
    194 HO15         5.6010    -3.6280    20.3160 ho         1 SWI       0.451000
    195 H571         5.9810    -7.2060    19.8980 hc         1 SWI       0.056200
    196 H572         5.2670    -7.1350    18.3040 hc         1 SWI       0.056200
    197 H58          7.8300    -5.8510    19.2640 h1         1 SWI       0.045700
    198 HO16         8.7330    -7.4510    18.0770 ho         1 SWI       0.469500
    199 H59          6.8290    -4.3330    17.6650 hc         1 SWI       0.061700
    200 H741         6.1430    -4.9410    15.4170 hc         1 SWI       0.036533
    201 H742         6.8080    -6.5640    15.5680 hc         1 SWI       0.036533
    202 H743         5.3810    -6.0930    16.4830 hc         1 SWI       0.036533
    203 H60          9.1290    -5.9360    16.4930 h1         1 SWI       0.085200
    204 H61          8.0600    -4.4740    14.8300 hc         1 SWI       0.065700
    205 H751         8.2160    -2.0110    15.0190 hc         1 SWI       0.038867
    206 H752         7.1620    -2.6850    16.2480 hc         1 SWI       0.038867
    207 H753         8.7930    -2.1540    16.6690 hc         1 SWI       0.038867
    208 H62         10.5330    -2.9400    15.1260 h1         1 SWI       0.029200
    209 HO18        11.8610    -4.8320    15.0820 ho         1 SWI       0.437000
    210 H63         11.1500    -4.0470    13.0590 hc         1 SWI       0.035200
    211 H761         9.4810    -3.0010    11.6380 hc         1 SWI       0.035367
    212 H762         8.2660    -3.0570    12.9050 hc         1 SWI       0.035367
    213 H763         9.6790    -2.0120    13.0730 hc         1 SWI       0.035367
    214 H641        10.0430    -6.2680    13.5960 hc         1 SWI       0.051950
    215 H642         8.5020    -5.5540    13.1760 hc         1 SWI       0.051950
    216 H651         9.4190    -5.0410    10.8660 hc         1 SWI       0.041450
    217 H652        10.8840    -5.8780    11.3040 hc         1 SWI       0.041450
    218 H66          8.0280    -6.9610    11.2510 h1         1 SWI       0.069700
    219 H70         11.4730    -7.9710    11.9680 h1         1 SWI       0.030700
    220 H711        11.9140   -10.3030    12.6100 hc         1 SWI       0.045033
    221 H712        10.7460    -9.5790    13.7140 hc         1 SWI       0.045033
    222 H713        10.2020   -10.7050    12.4610 hc         1 SWI       0.045033
    223 H691        11.9800    -9.5260    10.1510 hc         1 SWI       0.058950
    224 H692        10.2840   -10.0030    10.0300 hc         1 SWI       0.058950
    225 H68         11.4340    -7.2270     9.5060 h1         1 SWI       0.049200
    226 H671         8.5540    -8.2080     9.3030 hc         1 SWI       0.056200
    227 H672         9.0900    -6.5570     9.0090 hc         1 SWI       0.056200
    228 H781        11.1010    -7.9750     6.0690 h1         1 SWI       0.027700
    229 H782         9.9270    -6.9560     6.9070 h1         1 SWI       0.027700
    230 H783        11.6570    -6.7530     7.2240 h1         1 SWI       0.027700
@<TRIPOS>BOND
     1     1     2 2   
     2     2     3 1   
     3     2    52 1   
     4     3     4 1   
     5     4     5 1   
     6     4    22 1   
     7     4    99 1   
     8     5     6 1   
     9     5    21 1   
    10     5   100 1   
    11     6     7 1   
    12     6    20 1   
    13     6   101 1   
    14     7     8 1   
    15     7    19 1   
    16     7   102 1   
    17     8     9 1   
    18     8   103 1   
    19     8   104 1   
    20     9    10 1   
    21     9   105 1   
    22     9   106 1   
    23    10    11 1   
    24    10    18 1   
    25    10   107 1   
    26    11    12 1   
    27    12    13 1   
    28    12    14 1   
    29    12   108 1   
    30    13   109 1   
    31    13   110 1   
    32    13   111 1   
    33    14    15 1   
    34    14   112 1   
    35    14   113 1   
    36    15    16 1   
    37    15    18 1   
    38    15   114 1   
    39    16    17 1   
    40    17   115 1   
    41    17   116 1   
    42    17   117 1   
    43    18   118 1   
    44    18   119 1   
    45    19   120 1   
    46    19   121 1   
    47    19   122 1   
    48    20   123 1   
    49    21   124 1   
    50    21   125 1   
    51    21   126 1   
    52    22    23 1   
    53    22    24 1   
    54    22   127 1   
    55    23   128 1   
    56    23   129 1   
    57    23   130 1   
    58    24    25 1   
    59    24    26 1   
    60    24   131 1   
    61    25   132 1   
    62    26    27 1   
    63    26   133 1   
    64    26   134 1   
    65    27    28 1   
    66    27    29 1   
    67    27   135 1   
    68    28   136 1   
    69    29    30 1   
    70    29    31 1   
    71    29   137 1   
    72    30   138 1   
    73    30   139 1   
    74    30   140 1   
    75    31    32 1   
    76    31    34 1   
    77    31   141 1   
    78    32    33 1   
    79    33   142 1   
    80    33   143 1   
    81    33   144 1   
    82    34    35 1   
    83    34   145 1   
    84    34   146 1   
    85    35    36 1   
    86    35    39 1   
    87    35   147 1   
    88    36    37 1   
    89    36   148 1   
    90    36   149 1   
    91    37    38 2   
    92    37   150 1   
    93    38    40 1   
    94    38   151 1   
    95    39    40 1   
    96    40    41 1   
    97    40   152 1   
    98    41    42 1   
    99    41   153 1   
   100    41   154 1   
   101    42    43 1   
   102    42    44 1   
   103    42   155 1   
   104    43   156 1   
   105    44    45 1   
   106    44   157 1   
   107    44   158 1   
   108    45    46 2   
   109    45   159 1   
   110    46    47 1   
   111    46    48 1   
   112    47   160 1   
   113    47   161 1   
   114    47   162 1   
   115    48    49 2   
   116    48   163 1   
   117    49    50 1   
   118    49   164 1   
   119    50    51 2   
   120    50    81 1   
   121    52    53 2   
   122    52   165 1   
   123    53    54 1   
   124    53   166 1   
   125    54    55 1   
   126    54    56 2   
   127    55   167 1   
   128    55   168 1   
   129    55   169 1   
   130    56    57 1   
   131    56   170 1   
   132    57    58 1   
   133    57   171 1   
   134    57   172 1   
   135    58    59 1   
   136    58    60 1   
   137    58   173 1   
   138    59   174 1   
   139    60    61 1   
   140    60   175 1   
   141    60   176 1   
   142    61    62 1   
   143    61    66 1   
   144    61   177 1   
   145    62    63 1   
   146    63    64 1   
   147    63    67 1   
   148    63   178 1   
   149    64    65 1   
   150    64   179 1   
   151    64   180 1   
   152    65    66 2   
   153    65   181 1   
   154    66   182 1   
   155    67    68 1   
   156    67   183 1   
   157    67   184 1   
   158    68    69 1   
   159    68    71 1   
   160    68   185 1   
   161    69    70 1   
   162    70   186 1   
   163    70   187 1   
   164    70   188 1   
   165    71    72 1   
   166    71    73 1   
   167    71   189 1   
   168    72   190 1   
   169    72   191 1   
   170    72   192 1   
   171    73    74 1   
   172    73    75 1   
   173    73   193 1   
   174    74   194 1   
   175    75    76 1   
   176    75   195 1   
   177    75   196 1   
   178    76    77 1   
   179    76    78 1   
   180    76   197 1   
   181    77   198 1   
   182    78    79 1   
   183    78    80 1   
   184    78   199 1   
   185    79   200 1   
   186    79   201 1   
   187    79   202 1   
   188    80    81 1   
   189    80    82 1   
   190    80   203 1   
   191    82    83 1   
   192    82    84 1   
   193    82   204 1   
   194    83   205 1   
   195    83   206 1   
   196    83   207 1   
   197    84    85 1   
   198    84    86 1   
   199    84   208 1   
   200    85   209 1   
   201    86    87 1   
   202    86    88 1   
   203    86   210 1   
   204    87   211 1   
   205    87   212 1   
   206    87   213 1   
   207    88    89 1   
   208    88   214 1   
   209    88   215 1   
   210    89    90 1   
   211    89   216 1   
   212    89   217 1   
   213    90    91 1   
   214    90    96 1   
   215    90   218 1   
   216    91    92 1   
   217    92    93 1   
   218    92    94 1   
   219    92   219 1   
   220    93   220 1   
   221    93   221 1   
   222    93   222 1   
   223    94    95 1   
   224    94   223 1   
   225    94   224 1   
   226    95    96 1   
   227    95    97 1   
   228    95   225 1   
   229    96   226 1   
   230    96   227 1   
   231    97    98 1   
   232    98   228 1   
   233    98   229 1   
   234    98   230 1   
@<TRIPOS>SUBSTRUCTURE
     1 SWI         1 TEMP              0 ****  ****    0 ROOT
