@<TRIPOS>MOLECULE
SWJ
   24    23     1     0     0
SMALL
abcg2


@<TRIPOS>ATOM
      1 C10         -3.7660     8.0880    17.6730 c3         1 SWJ       0.068800
      2 C02         -7.3840    10.7360    16.2580 c          1 SWJ       0.556100
      3 C03         -6.2630    11.3150    15.4380 c3         1 SWJ      -0.194100
      4 C04         -7.2380     9.2620    16.6560 c3         1 SWJ       0.008700
      5 C05         -8.3810     8.7530    17.5500 c3         1 SWJ       0.007700
      6 C06         -9.6530     8.6390    16.8490 c1         1 SWJ      -0.142100
      7 C07        -10.6890     8.5220    16.2510 c1         1 SWJ      -0.231000
      8 C09         -5.0310     8.1840    16.8280 c          1 SWJ       0.594100
      9 N08         -5.9500     9.0570    17.2790 ns         1 SWJ      -0.498900
     10 N11         -3.6590     9.1290    18.6910 n8         1 SWJ      -1.033200
     11 O12         -5.1740     7.4910    15.8210 o          1 SWJ      -0.612100
     12 H1          -3.8040     7.1110    18.1600 h1         1 SWJ       0.064700
     13 H2          -2.9250     8.0580    16.9730 h1         1 SWJ       0.064700
     14 H3          -6.6180    12.1860    14.8900 hc         1 SWJ       0.064367
     15 H4          -5.4610    11.6280    16.1130 hc         1 SWJ       0.064367
     16 H5          -5.8430    10.5750    14.7560 hc         1 SWJ       0.064367
     17 H6          -7.2250     8.6870    15.7270 h1         1 SWJ       0.103700
     18 H7          -8.0910     7.7700    17.9270 hc         1 SWJ       0.066700
     19 H8          -8.4890     9.4130    18.4150 hc         1 SWJ       0.066700
     20 H9         -11.6110     8.4200    15.7280 ha         1 SWJ       0.255000
     21 H10         -5.7060     9.5490    18.1310 hn         1 SWJ       0.343500
     22 H11         -3.1370     8.7940    19.4900 hn         1 SWJ       0.412500
     23 H12         -3.1690     9.9390    18.3300 hn         1 SWJ       0.412500
     24 O01         -8.3460    11.3910    16.5980 o          1 SWJ      -0.506100
@<TRIPOS>BOND
     1     1     8 1   
     2     1    10 1   
     3     1    12 1   
     4     1    13 1   
     5     2     3 1   
     6     2     4 1   
     7     2    24 2   
     8     3    14 1   
     9     3    15 1   
    10     3    16 1   
    11     4     5 1   
    12     4     9 1   
    13     4    17 1   
    14     5     6 1   
    15     5    18 1   
    16     5    19 1   
    17     6     7 3   
    18     7    20 1   
    19     8     9 1   
    20     8    11 2   
    21     9    21 1   
    22    10    22 1   
    23    10    23 1   
@<TRIPOS>SUBSTRUCTURE
     1 SWJ         1 TEMP              0 ****  ****    0 ROOT
