@<TRIPOS>MOLECULE
SWJ
   24    23     1     0     0
SMALL
No Charge or Current Charge


@<TRIPOS>ATOM
      1 C10         -3.7770     7.8780    18.3710 c3         1 SWJ       0.068800
      2 C02         -7.2220    10.8770    16.6230 c          1 SWJ       0.556100
      3 C03         -7.4190    11.5310    15.2540 c3         1 SWJ      -0.194100
      4 C04         -6.9480     9.3490    16.6350 c3         1 SWJ       0.008700
      5 C05         -8.1770     8.5380    17.1230 c3         1 SWJ       0.007700
      6 C06         -9.3610     8.7060    16.2690 c1         1 SWJ      -0.142100
      7 C07        -10.3320     8.8730    15.5670 c1         1 SWJ      -0.231000
      8 C09         -4.9650     7.9300    17.3570 c          1 SWJ       0.594100
      9 N08         -5.7460     9.0610    17.4530 ns         1 SWJ      -0.498900
     10 N11         -3.0520     9.1770    18.6390 n8         1 SWJ      -1.033200
     11 O12         -5.1830     7.0540    16.5300 o          1 SWJ      -0.612100
     12 H1          -4.1880     7.5080    19.3200 h1         1 SWJ       0.064700
     13 H2          -3.0580     7.1330    18.0010 h1         1 SWJ       0.064700
     14 H3          -7.6150    12.6070    15.3230 hc         1 SWJ       0.064367
     15 H4          -6.5390    11.3230    14.6350 hc         1 SWJ       0.064367
     16 H5          -8.2120    11.0050    14.7110 hc         1 SWJ       0.064367
     17 H6          -6.7310     9.0550    15.5990 h1         1 SWJ       0.103700
     18 H7          -7.9230     7.4710    17.1540 hc         1 SWJ       0.066700
     19 H8          -8.4300     8.8330    18.1490 hc         1 SWJ       0.066700
     20 H9         -11.1990     9.0080    14.9500 ha         1 SWJ       0.255000
     21 H10         -5.4440     9.7370    18.1500 hn         1 SWJ       0.343500
     22 H11         -2.2690     9.0060    19.2870 hn         1 SWJ       0.412500
     23 H12         -2.5800     9.4930    17.7790 hn         1 SWJ       0.412500
     24 O01         -7.2430    11.5440    17.6520 o          1 SWJ      -0.506100
@<TRIPOS>BOND
     1     1     8 1   
     2     1    10 1   
     3     1    12 1   
     4     1    13 1   
     5     2     3 1   
     6     2     4 1   
     7     2    24 2   
     8     3    14 1   
     9     3    15 1   
    10     3    16 1   
    11     4     5 1   
    12     4     9 1   
    13     4    17 1   
    14     5     6 1   
    15     5    18 1   
    16     5    19 1   
    17     6     7 3   
    18     7    20 1   
    19     8     9 1   
    20     8    11 2   
    21     9    21 1   
    22    10    22 1   
    23    10    23 1   
@<TRIPOS>SUBSTRUCTURE
     1 SWJ         1 TEMP              0 ****  ****    0 ROOT
