@<TRIPOS>MOLECULE
SWK
   50    54     1     0     0
SMALL
abcg2


@<TRIPOS>ATOM
      1 C1         194.6010   -32.0740    80.0220 ca         1 SWK      -0.154000
      2 C2         193.4020   -31.9330    80.7090 ca         1 SWK      -0.086000
      3 C3         193.3730   -32.0800    82.0880 ca         1 SWK      -0.128000
      4 C7         197.8780   -31.5860    83.0520 cc         1 SWK      -0.132400
      5 C8         197.5360   -30.2800    82.8420 cd         1 SWK      -0.141100
      6 C9         199.6290   -30.2110    83.5830 ca         1 SWK       0.366500
      7 C10        201.6760   -30.7040    84.3340 ca         1 SWK       0.360900
      8 C11        201.4120   -32.0870    84.3390 ca         1 SWK      -0.069000
      9 C12        200.1550   -32.5200    83.9270 ca         1 SWK      -0.026000
     10 C13        199.2270   -31.5650    83.5300 ca         1 SWK      -0.129800
     11 C14        202.4460   -33.0320    84.7540 cc         1 SWK      -0.147000
     12 C15        202.5840   -34.3880    84.3970 cc         1 SWK       0.248900
     13 C16        203.5310   -32.8070    85.5810 cd         1 SWK      -0.163000
     14 C19        206.7290   -35.5710    88.0180 c6         1 SWK       0.150300
     15 C20        207.9220   -34.5900    86.1740 c6         1 SWK       0.150300
     16 C21        206.6260   -34.3480    85.4000 c6         1 SWK      -0.128400
     17 C          195.7460   -32.3600    80.7380 ca         1 SWK       0.174000
     18 C5         195.7580   -32.5200    82.1160 ca         1 SWK      -0.121300
     19 C4         194.5430   -32.3710    82.7770 ca         1 SWK      -0.084000
     20 C6         197.0310   -32.8060    82.8610 c3         1 SWK       0.051100
     21 N          198.5820   -29.4550    83.1610 na         1 SWK      -0.326400
     22 N1         200.8130   -29.7700    83.9720 nb         1 SWK      -0.681000
     23 N3         204.2110   -33.9620    85.6660 na         1 SWK       0.134800
     24 N2         203.6530   -34.9300    84.9500 nd         1 SWK      -0.528800
     25 C17        205.4630   -34.1850    86.3720 c6         1 SWK       0.105300
     26 N4         207.8540   -35.7000    87.1080 n7         1 SWK      -0.846400
     27 C18        205.3800   -35.3720    87.3230 c6         1 SWK      -0.128400
     28 H1         194.6450   -31.9660    78.9460 ha         1 SWK       0.131000
     29 H2         192.4960   -31.7070    80.1620 ha         1 SWK       0.117000
     30 H3         192.4420   -31.9710    82.6290 ha         1 SWK       0.118000
     31 H4         196.6080   -29.8650    82.4820 h4         1 SWK       0.219000
     32 H5         202.6560   -30.3510    84.6370 h4         1 SWK       0.014100
     33 H6         199.9050   -33.5750    83.9260 ha         1 SWK       0.121000
     34 H7         201.9500   -34.9750    83.7490 h4         1 SWK       0.037100
     35 H8         203.8510   -31.9240    86.1120 h4         1 SWK       0.154000
     36 H10        206.9210   -34.7200    88.6810 h1         1 SWK       0.055200
     37 H11        208.7430   -34.7640    85.4760 h1         1 SWK       0.055200
     38 H12        208.1810   -33.6850    86.7350 h1         1 SWK       0.055200
     39 H13        206.4320   -35.1940    84.7340 hc         1 SWK       0.063700
     40 H14        206.7210   -33.4570    84.7740 hc         1 SWK       0.063700
     41 H15        194.5180   -32.4870    83.8540 ha         1 SWK       0.118000
     42 H16        196.7770   -33.2340    83.8350 hc         1 SWK       0.059200
     43 H17        197.6110   -33.5750    82.3430 hc         1 SWK       0.059200
     44 H18        198.5780   -28.4510    83.0840 hn         1 SWK       0.361000
     45 H19        205.6250   -33.2780    86.9630 h1         1 SWK       0.057700
     46 H20        207.7610   -36.5640    86.5870 hn         1 SWK       0.410000
     47 H22        204.5950   -35.2060    88.0650 hc         1 SWK       0.063700
     48 H23        205.1160   -36.2750    86.7660 hc         1 SWK       0.063700
     49 F          196.9050   -32.4910    80.0690 f          1 SWK      -0.175000
     50 H9         206.6870   -36.4560    88.6560 h1         1 SWK       0.055200
@<TRIPOS>BOND
     1     1     2 ar  
     2     1    17 ar  
     3     1    28 1   
     4     2     3 ar  
     5     2    29 1   
     6     3    19 ar  
     7     3    30 1   
     8     4     5 2   
     9     4    10 1   
    10     4    20 1   
    11     5    21 1   
    12     5    31 1   
    13     6    10 ar  
    14     6    21 1   
    15     6    22 ar  
    16     7     8 ar  
    17     7    22 ar  
    18     7    32 1   
    19     8     9 ar  
    20     8    11 1   
    21     9    10 ar  
    22     9    33 1   
    23    11    12 1   
    24    11    13 2   
    25    12    24 2   
    26    12    34 1   
    27    13    23 1   
    28    13    35 1   
    29    14    26 1   
    30    14    27 1   
    31    14    36 1   
    32    14    50 1   
    33    15    16 1   
    34    15    26 1   
    35    15    37 1   
    36    15    38 1   
    37    16    25 1   
    38    16    39 1   
    39    16    40 1   
    40    17    18 ar  
    41    17    49 1   
    42    18    19 ar  
    43    18    20 1   
    44    19    41 1   
    45    20    42 1   
    46    20    43 1   
    47    21    44 1   
    48    23    24 1   
    49    23    25 1   
    50    25    27 1   
    51    25    45 1   
    52    26    46 1   
    53    27    47 1   
    54    27    48 1   
@<TRIPOS>SUBSTRUCTURE
     1 SWK         1 TEMP              0 ****  ****    0 ROOT
