@<TRIPOS>MOLECULE
SWK
   50    54     1     0     0
SMALL
No Charge or Current Charge


@<TRIPOS>ATOM
      1 C1         194.8070   -32.0460    79.7860 ca         1 SWK      -0.154000
      2 C2         193.5510   -32.0300    80.4170 ca         1 SWK      -0.086000
      3 C3         193.4630   -32.2600    81.8000 ca         1 SWK      -0.128000
      4 C7         197.8480   -31.5190    83.1770 cc         1 SWK      -0.132400
      5 C8         197.3770   -30.2140    83.1100 cd         1 SWK      -0.141100
      6 C9         199.4460   -30.1010    83.9970 ca         1 SWK       0.366500
      7 C10        201.5240   -30.6590    84.8250 ca         1 SWK       0.360900
      8 C11        201.3140   -32.0470    84.5990 ca         1 SWK      -0.069000
      9 C12        200.0810   -32.4380    84.0360 ca         1 SWK      -0.026000
     10 C13        199.1620   -31.4220    83.7450 ca         1 SWK      -0.129800
     11 C14        202.3260   -33.0580    84.9300 cc         1 SWK      -0.147000
     12 C15        202.2990   -34.4560    84.7810 cc         1 SWK       0.248900
     13 C16        203.5380   -32.7480    85.4760 cd         1 SWK      -0.163000
     14 C19        206.9540   -35.1930    88.0370 c6         1 SWK       0.150300
     15 C20        207.9170   -34.9690    85.7700 c6         1 SWK       0.150300
     16 C21        206.5140   -34.7790    85.1520 c6         1 SWK      -0.128400
     17 C          195.9680   -32.2920    80.5360 ca         1 SWK       0.174000
     18 C5         195.8880   -32.5270    81.9260 ca         1 SWK      -0.121300
     19 C4         194.6250   -32.5060    82.5520 ca         1 SWK      -0.084000
     20 C6         197.1450   -32.7850    82.7530 c3         1 SWK       0.051100
     21 N          198.3660   -29.3350    83.6150 na         1 SWK      -0.326400
     22 N1         200.6110   -29.6950    84.5320 nb         1 SWK      -0.681000
     23 N3         204.1750   -33.9850    85.6250 na         1 SWK       0.134800
     24 N2         203.3980   -35.0560    85.1900 nd         1 SWK      -0.528800
     25 C17        205.5390   -34.1590    86.1880 c6         1 SWK       0.105300
     26 N4         207.8440   -35.7830    87.0080 n7         1 SWK      -0.846400
     27 C18        205.5220   -35.0090    87.4860 c6         1 SWK      -0.128400
     28 H1         194.8820   -31.8670    78.7160 ha         1 SWK       0.131000
     29 H2         192.6510   -31.8390    79.8370 ha         1 SWK       0.117000
     30 H3         192.4920   -32.2460    82.2910 ha         1 SWK       0.118000
     31 H4         196.4190   -29.8520    82.7410 h4         1 SWK       0.219000
     32 H5         202.4550   -30.2960    85.2570 h4         1 SWK       0.014100
     33 H6         199.8460   -33.4800    83.8350 ha         1 SWK       0.121000
     34 H7         201.4970   -35.0610    84.3810 h4         1 SWK       0.037100
     35 H8         203.9940   -31.8070    85.7620 h4         1 SWK       0.154000
     36 H10        207.3530   -34.2170    88.3550 h1         1 SWK       0.055200
     37 H11        208.5790   -35.4600    85.0400 h1         1 SWK       0.055200
     38 H12        208.3540   -33.9850    86.0000 h1         1 SWK       0.055200
     39 H13        206.1320   -35.7490    84.8040 hc         1 SWK       0.063700
     40 H14        206.5830   -34.1320    84.2680 hc         1 SWK       0.063700
     41 H15        194.5430   -32.6780    83.6240 ha         1 SWK       0.118000
     42 H16        196.8920   -33.3670    83.6470 hc         1 SWK       0.059200
     43 H17        197.8410   -33.4140    82.1850 hc         1 SWK       0.059200
     44 H18        198.3090   -28.3270    83.6920 hn         1 SWK       0.361000
     45 H19        205.9170   -33.1590    86.4470 h1         1 SWK       0.057700
     46 H20        207.4820   -36.7130    86.7620 hn         1 SWK       0.410000
     47 H22        204.8920   -34.5240    88.2440 hc         1 SWK       0.063700
     48 H23        205.0750   -35.9940    87.2890 hc         1 SWK       0.063700
     49 F          197.1660   -32.2960    79.9090 f          1 SWK      -0.175000
     50 H9         206.9280   -35.8430    88.9240 h1         1 SWK       0.055200
@<TRIPOS>BOND
     1     1     2 ar  
     2     1    17 ar  
     3     1    28 1   
     4     2     3 ar  
     5     2    29 1   
     6     3    19 ar  
     7     3    30 1   
     8     4     5 2   
     9     4    10 1   
    10     4    20 1   
    11     5    21 1   
    12     5    31 1   
    13     6    10 ar  
    14     6    21 1   
    15     6    22 ar  
    16     7     8 ar  
    17     7    22 ar  
    18     7    32 1   
    19     8     9 ar  
    20     8    11 1   
    21     9    10 ar  
    22     9    33 1   
    23    11    12 1   
    24    11    13 2   
    25    12    24 2   
    26    12    34 1   
    27    13    23 1   
    28    13    35 1   
    29    14    26 1   
    30    14    27 1   
    31    14    36 1   
    32    14    50 1   
    33    15    16 1   
    34    15    26 1   
    35    15    37 1   
    36    15    38 1   
    37    16    25 1   
    38    16    39 1   
    39    16    40 1   
    40    17    18 ar  
    41    17    49 1   
    42    18    19 ar  
    43    18    20 1   
    44    19    41 1   
    45    20    42 1   
    46    20    43 1   
    47    21    44 1   
    48    23    24 1   
    49    23    25 1   
    50    25    27 1   
    51    25    45 1   
    52    26    46 1   
    53    27    47 1   
    54    27    48 1   
@<TRIPOS>SUBSTRUCTURE
     1 SWK         1 TEMP              0 ****  ****    0 ROOT
