@<TRIPOS>MOLECULE
SWL
   51    53     1     0     0
SMALL
No Charge or Current Charge


@<TRIPOS>ATOM
      1 C15        118.8900   132.5220   123.1660 c3         1 SWL      -0.124400
      2 C12        118.5890   131.0880   123.4920 cc         1 SWL       0.420800
      3 N4         117.5000   130.7220   124.2510 nc         1 SWL      -0.676000
      4 C13        117.5780   129.3950   124.3040 cd         1 SWL       0.265900
      5 N3         119.3390   130.0060   123.0870 na         1 SWL      -0.163500
      6 C14        120.5680   130.0230   122.2730 c3         1 SWL       0.053900
      7 C11        118.7220   128.8950   123.6100 cd         1 SWL      -0.197000
      8 C6         119.0910   127.4910   123.3890 ca         1 SWL       0.081000
      9 C5         119.1510   126.9890   122.0770 ca         1 SWL      -0.147000
     10 C4         119.4580   125.6280   121.8380 ca         1 SWL       0.342000
     11 C3         119.5150   125.1090   120.4480 cc         1 SWL       0.351400
     12 N1         119.2960   125.8540   119.3590 nd         1 SWL      -0.641000
     13 C2         119.4220   125.0800   118.2150 cd         1 SWL       0.273900
     14 C1         119.7350   123.7620   118.4420 cc         1 SWL      -0.282000
     15 S1         119.8870   123.4260   120.1410 ss         1 SWL       0.069600
     16 N2         119.6980   124.7690   122.8690 nb         1 SWL      -0.654000
     17 C8         119.6490   125.2560   124.1280 ca         1 SWL       0.365300
     18 S2         119.9470   124.2070   125.5640 ss         1 SWL       0.110100
     19 C7         119.3670   126.5850   124.4300 ca         1 SWL      -0.150000
     20 C9         119.4380   126.8030   125.8540 cc         1 SWL       0.246000
     21 N5         119.3150   127.9960   126.4740 nv         1 SWL      -0.923000
     22 C10        119.7500   125.6410   126.5900 cc         1 SWL      -0.552400
     23 S3         119.8110   125.4170   128.3640 s4         1 SWL       0.528700
     24 O1         130.9690   118.0970   134.4870 o          1 SWL      -0.829000
     25 C16        118.4170   124.2910   128.8030 c3         1 SWL       0.083900
     26 C17        118.1580   124.2650   130.3280 c3         1 SWL      -0.063400
     27 C18        116.9940   123.3280   130.7250 c3         1 SWL      -0.070400
     28 C19        116.7340   123.2990   132.2430 c3         1 SWL      -0.090100
     29 H1         118.0880   133.1840   123.5110 hc         1 SWL       0.058700
     30 H2         119.8220   132.8400   123.6460 hc         1 SWL       0.058700
     31 H3         118.9970   132.6590   122.0840 hc         1 SWL       0.058700
     32 H4         116.8150   128.8310   124.8280 h4         1 SWL       0.050100
     33 H5         121.1720   129.1330   122.4870 h1         1 SWL       0.059700
     34 H6         120.3020   130.0330   121.2080 h1         1 SWL       0.059700
     35 H7         121.1600   130.9170   122.5060 h1         1 SWL       0.059700
     36 H8         118.9430   127.6520   121.2430 ha         1 SWL       0.147000
     37 H9         119.2750   125.5350   117.2420 h4         1 SWL       0.043100
     38 H10        119.8840   122.9720   117.7190 h4         1 SWL       0.162000
     39 H11        119.7590   128.1270   127.3760 hn         1 SWL       0.472000
     40 H12        119.2720   128.8270   125.8900 hn         1 SWL       0.472000
     41 H13        130.4350   117.8130   133.7100 ho         1 SWL       0.117000
     42 H14        117.5280   124.6460   128.2670 h1         1 SWL       0.093200
     43 H15        118.6760   123.2900   128.4400 h1         1 SWL       0.093200
     44 H16        119.0720   123.9430   130.8430 hc         1 SWL       0.056700
     45 H17        117.9350   125.2830   130.6730 hc         1 SWL       0.056700
     46 H18        116.0780   123.6470   130.2130 hc         1 SWL       0.042700
     47 H19        117.2140   122.3090   130.3820 hc         1 SWL       0.042700
     48 H20        115.9030   122.6230   132.4760 hc         1 SWL       0.035700
     49 H21        117.6220   122.9490   132.7830 hc         1 SWL       0.035700
     50 H22        116.4760   124.2990   132.6130 hc         1 SWL       0.035700
     51 H23        119.1450   126.6090   128.6300 hs         1 SWL       0.063000
@<TRIPOS>BOND
     1     1     2 1   
     2     1    29 1   
     3     1    30 1   
     4     1    31 1   
     5     2     3 1   
     6     2     5 2   
     7     3     4 2   
     8     4     7 1   
     9     4    32 1   
    10     5     6 1   
    11     5     7 1   
    12     6    33 1   
    13     6    34 1   
    14     6    35 1   
    15     7     8 2   
    16     8     9 ar  
    17     8    19 ar  
    18     9    10 ar  
    19     9    36 1   
    20    10    11 1   
    21    10    16 ar  
    22    11    12 2   
    23    11    15 1   
    24    12    13 1   
    25    13    14 2   
    26    13    37 1   
    27    14    15 1   
    28    14    38 1   
    29    16    17 ar  
    30    17    18 1   
    31    17    19 ar  
    32    18    22 1   
    33    19    20 2   
    34    20    21 1   
    35    20    22 1   
    36    21    39 1   
    37    21    40 1   
    38    22    23 2   
    39    23    25 1   
    40    23    51 1   
    41    24    41 1   
    42    25    26 1   
    43    25    42 1   
    44    25    43 1   
    45    26    27 1   
    46    26    44 1   
    47    26    45 1   
    48    27    28 1   
    49    27    46 1   
    50    27    47 1   
    51    28    48 1   
    52    28    49 1   
    53    28    50 1   
@<TRIPOS>SUBSTRUCTURE
     1 SWL         1 TEMP              0 ****  ****    0 ROOT
