@<TRIPOS>MOLECULE
SWL
   51    53     1     0     0
SMALL
abcg2


@<TRIPOS>ATOM
      1 C15        118.4230   132.0990   123.1680 c3         1 SWL      -0.124400
      2 C12        118.2990   130.6950   123.6400 cc         1 SWL       0.420800
      3 N4         117.3620   130.2350   124.4560 nc         1 SWL      -0.676000
      4 C13        117.6430   128.9060   124.6460 cd         1 SWL       0.265900
      5 N3         119.1690   129.7070   123.2880 na         1 SWL      -0.163500
      6 C14        120.3370   129.8650   122.4330 c3         1 SWL       0.053900
      7 C11        118.7640   128.5470   123.9360 cd         1 SWL      -0.197000
      8 C6         119.3780   127.2350   123.7170 ca         1 SWL       0.081000
      9 C5         119.5110   126.7660   122.4150 ca         1 SWL      -0.147000
     10 C4         120.0170   125.4850   122.1630 ca         1 SWL       0.342000
     11 C3         120.1580   124.9940   120.7940 cc         1 SWL       0.351400
     12 N1         119.8560   125.6720   119.7160 nd         1 SWL      -0.641000
     13 C2         120.1040   124.9440   118.5850 cd         1 SWL       0.273900
     14 C1         120.6030   123.6910   118.7930 cc         1 SWL      -0.282000
     15 S1         120.7740   123.3980   120.4760 ss         1 SWL       0.069600
     16 N2         120.3820   124.6490   123.1390 nb         1 SWL      -0.654000
     17 C8         120.2700   125.0930   124.3840 ca         1 SWL       0.365300
     18 S2         120.7640   124.1070   125.7330 ss         1 SWL       0.110100
     19 C7         119.8020   126.3770   124.7590 ca         1 SWL      -0.150000
     20 C9         119.8960   126.5670   126.1920 cc         1 SWL       0.246000
     21 N5         119.5560   127.7400   126.8330 nv         1 SWL      -0.923000
     22 C10        120.3470   125.4190   126.8130 cc         1 SWL      -0.552400
     23 S3         120.5120   125.1700   128.5440 s4         1 SWL       0.528700
     24 O1         121.3510   123.1070   128.1190 o          1 SWL      -0.829000
     25 C16        118.9420   124.3630   129.0610 c3         1 SWL       0.083900
     26 C17        118.9830   124.0600   130.5490 c3         1 SWL      -0.063400
     27 C18        117.6920   123.3780   131.0100 c3         1 SWL      -0.070400
     28 C19        117.7100   123.0520   132.5010 c3         1 SWL      -0.090100
     29 H1         117.5860   132.6770   123.5550 hc         1 SWL       0.058700
     30 H2         119.3520   132.5570   123.5160 hc         1 SWL       0.058700
     31 H3         118.4160   132.1560   122.0770 hc         1 SWL       0.058700
     32 H4         117.0250   128.2690   125.2580 h4         1 SWL       0.050100
     33 H5         121.0970   129.1450   122.7240 h1         1 SWL       0.059700
     34 H6         120.0770   129.7080   121.3860 h1         1 SWL       0.059700
     35 H7         120.7380   130.8690   122.5550 h1         1 SWL       0.059700
     36 H8         119.1920   127.3730   121.5820 ha         1 SWL       0.147000
     37 H9         119.9010   125.3760   117.6160 h4         1 SWL       0.043100
     38 H10        120.8710   122.9460   118.0610 h4         1 SWL       0.162000
     39 H11        120.1410   128.0190   127.6050 hn         1 SWL       0.472000
     40 H12        119.3500   128.5140   126.2190 hn         1 SWL       0.472000
     41 H13        120.7140   122.4140   127.9070 ho         1 SWL       0.117000
     42 H14        118.1380   125.0490   128.7980 h1         1 SWL       0.093200
     43 H15        118.8760   123.4630   128.4580 h1         1 SWL       0.093200
     44 H16        119.8380   123.4130   130.7610 hc         1 SWL       0.056700
     45 H17        119.1260   124.9860   131.1140 hc         1 SWL       0.056700
     46 H18        116.8420   124.0280   130.7840 hc         1 SWL       0.042700
     47 H19        117.5470   122.4610   130.4320 hc         1 SWL       0.042700
     48 H20        116.7830   122.5630   132.8080 hc         1 SWL       0.035700
     49 H21        118.5400   122.3850   132.7450 hc         1 SWL       0.035700
     50 H22        117.8240   123.9600   133.0990 hc         1 SWL       0.035700
     51 H23        119.9830   126.4110   128.7970 hs         1 SWL       0.063000
@<TRIPOS>BOND
     1     1     2 1   
     2     1    29 1   
     3     1    30 1   
     4     1    31 1   
     5     2     3 1   
     6     2     5 2   
     7     3     4 2   
     8     4     7 1   
     9     4    32 1   
    10     5     6 1   
    11     5     7 1   
    12     6    33 1   
    13     6    34 1   
    14     6    35 1   
    15     7     8 2   
    16     8     9 ar  
    17     8    19 ar  
    18     9    10 ar  
    19     9    36 1   
    20    10    11 1   
    21    10    16 ar  
    22    11    12 2   
    23    11    15 1   
    24    12    13 1   
    25    13    14 2   
    26    13    37 1   
    27    14    15 1   
    28    14    38 1   
    29    16    17 ar  
    30    17    18 1   
    31    17    19 ar  
    32    18    22 1   
    33    19    20 2   
    34    20    21 1   
    35    20    22 1   
    36    21    39 1   
    37    21    40 1   
    38    22    23 2   
    39    23    25 1   
    40    23    51 1   
    41    24    41 1   
    42    25    26 1   
    43    25    42 1   
    44    25    43 1   
    45    26    27 1   
    46    26    44 1   
    47    26    45 1   
    48    27    28 1   
    49    27    46 1   
    50    27    47 1   
    51    28    48 1   
    52    28    49 1   
    53    28    50 1   
@<TRIPOS>SUBSTRUCTURE
     1 SWL         1 TEMP              0 ****  ****    0 ROOT
