@<TRIPOS>MOLECULE
SWM
   23    24     1     0     0
SMALL
abcg2


@<TRIPOS>ATOM
      1 C1          35.8800    20.4720    -5.0940 c          1 SWM       0.563100
      2 C2          36.3800    21.9300    -4.9820 c3         1 SWM       0.265000
      3 C3          36.3860    18.2190    -4.3860 cc         1 SWM       0.494300
      4 C4          35.6520    15.9660    -4.4570 cc         1 SWM       0.428900
      5 C5          35.0050    14.6670    -4.6470 ca         1 SWM      -0.098500
      6 C6          33.7150    14.5530    -5.1660 ca         1 SWM      -0.135000
      7 C7          33.1630    13.2900    -5.3230 ca         1 SWM       0.333400
      8 C8          35.0360    12.2760    -4.5040 ca         1 SWM       0.333400
      9 C9          35.6770    13.4890    -4.3100 ca         1 SWM      -0.135000
     10 F1          36.0070    22.6200    -6.0630 f          1 SWM      -0.064500
     11 F2          37.7210    21.9940    -4.8890 f          1 SWM      -0.064500
     12 N1          36.6580    19.5690    -4.4530 ns         1 SWM      -0.449400
     13 N2          37.1890    17.4130    -3.7470 nd         1 SWM      -0.367000
     14 N3          36.7620    16.1260    -3.7920 nd         1 SWM      -0.293000
     15 N4          33.7990    12.1610    -5.0020 nb         1 SWM      -0.650000
     16 O1          34.8610    20.2150    -5.6970 o          1 SWM      -0.506100
     17 S1          35.0170    17.4560    -5.1120 ss         1 SWM      -0.154800
     18 BR1         35.5900    22.7550    -3.3830 br         1 SWM      -0.190000
     19 H1          33.1360    15.4250    -5.4400 ha         1 SWM       0.136500
     20 H2          32.1610    13.1860    -5.7240 h4         1 SWM       0.025600
     21 H3          35.5430    11.3520    -4.2490 h4         1 SWM       0.025600
     22 H4          36.6800    13.5200    -3.9120 ha         1 SWM       0.136500
     23 H5          37.5060    19.8660    -3.9840 hn         1 SWM       0.366500
@<TRIPOS>BOND
     1     1     2 1   
     2     1    12 1   
     3     1    16 2   
     4     2    10 1   
     5     2    11 1   
     6     2    18 1   
     7     3    12 1   
     8     3    13 2   
     9     3    17 1   
    10     4     5 1   
    11     4    14 2   
    12     4    17 1   
    13     5     6 ar  
    14     5     9 ar  
    15     6     7 ar  
    16     6    19 1   
    17     7    15 ar  
    18     7    20 1   
    19     8     9 ar  
    20     8    15 ar  
    21     8    21 1   
    22     9    22 1   
    23    12    23 1   
    24    13    14 1   
@<TRIPOS>SUBSTRUCTURE
     1 SWM         1 TEMP              0 ****  ****    0 ROOT
