@<TRIPOS>MOLECULE
SWM
   23    24     1     0     0
SMALL
No Charge or Current Charge


@<TRIPOS>ATOM
      1 C1          35.8130    20.5970    -5.1170 c          1 SWM       0.563100
      2 C2          36.4040    22.0290    -4.9730 c3         1 SWM       0.265000
      3 C3          36.2830    18.2530    -4.4160 cc         1 SWM       0.494300
      4 C4          35.6290    15.9600    -4.4630 cc         1 SWM       0.428900
      5 C5          35.0100    14.6350    -4.6490 ca         1 SWM      -0.098500
      6 C6          33.8280    14.4560    -5.4040 ca         1 SWM      -0.135000
      7 C7          33.2790    13.1690    -5.5500 ca         1 SWM       0.333400
      8 C8          34.9600    12.2230    -4.2730 ca         1 SWM       0.333400
      9 C9          35.5750    13.4720    -4.0760 ca         1 SWM      -0.135000
     10 F1          35.5810    22.9550    -5.5200 f          1 SWM      -0.064500
     11 F2          37.5830    22.1180    -5.6330 f          1 SWM      -0.064500
     12 N1          36.5320    19.6040    -4.4790 ns         1 SWM      -0.449400
     13 N2          37.1140    17.4850    -3.7330 nd         1 SWM      -0.367000
     14 N3          36.7370    16.1550    -3.7580 nd         1 SWM      -0.293000
     15 N4          33.8290    12.0640    -4.9970 nb         1 SWM      -0.650000
     16 O1          34.7900    20.3650    -5.7500 o          1 SWM      -0.506100
     17 S1          34.9540    17.4060    -5.1570 ss         1 SWM      -0.154800
     18 Br1         36.7050    22.5040    -3.0550 br         1 SWM      -0.190000
     19 H1          33.3220    15.2900    -5.8810 ha         1 SWM       0.136500
     20 H2          32.3690    13.0190    -6.1290 h4         1 SWM       0.025600
     21 H3          35.3870    11.3210    -3.8370 h4         1 SWM       0.025600
     22 H4          36.4830    13.5200    -3.4810 ha         1 SWM       0.136500
     23 H5          37.3540    19.9220    -3.9830 hn         1 SWM       0.366500
@<TRIPOS>BOND
     1     1     2 1   
     2     1    12 1   
     3     1    16 2   
     4     2    10 1   
     5     2    11 1   
     6     2    18 1   
     7     3    12 1   
     8     3    13 2   
     9     3    17 1   
    10     4     5 1   
    11     4    14 2   
    12     4    17 1   
    13     5     6 ar  
    14     5     9 ar  
    15     6     7 ar  
    16     6    19 1   
    17     7    15 ar  
    18     7    20 1   
    19     8     9 ar  
    20     8    15 ar  
    21     8    21 1   
    22     9    22 1   
    23    12    23 1   
    24    13    14 1   
@<TRIPOS>SUBSTRUCTURE
     1 SWM         1 TEMP              0 ****  ****    0 ROOT
