@<TRIPOS>MOLECULE
SWN
   50    54     1     0     0
SMALL
abcg2


@<TRIPOS>ATOM
      1 C1         193.5830   -32.4570    82.3990 ca         1 SWN      -0.082300
      2 C2         193.4620   -32.2310    81.0300 ca         1 SWN      -0.106500
      3 C3         192.2310   -31.9180    80.4680 ca         1 SWN      -0.112000
      4 C7         195.6540   -31.5360    83.4540 cc         1 SWN      -0.135400
      5 C8         195.2570   -30.2320    83.3590 cd         1 SWN      -0.140100
      6 C9         197.2620   -30.1510    84.3120 ca         1 SWN       0.365500
      7 C10        199.2500   -30.6360    85.2140 ca         1 SWN       0.358900
      8 C11        199.0660   -32.0220    85.0400 ca         1 SWN      -0.066000
      9 C12        197.8830   -32.4570    84.4530 ca         1 SWN      -0.029000
     10 C13        196.9460   -31.5060    84.0680 ca         1 SWN      -0.131800
     11 C14        200.0970   -32.9680    85.4640 cc         1 SWN      -0.145000
     12 C15        200.1680   -34.3510    85.2000 cc         1 SWN       0.247900
     13 C16        201.2340   -32.7290    86.2140 cd         1 SWN      -0.162000
     14 C19        205.4840   -34.9530    86.9120 c6         1 SWN       0.150300
     15 C20        204.2570   -35.3160    88.9490 c6         1 SWN       0.150300
     16 C21        202.9190   -35.0680    88.2490 c6         1 SWN      -0.127900
     17 N4         205.3030   -35.8110    88.0700 n7         1 SWN      -0.846400
     18 C18        204.1980   -34.6920    86.1250 c6         1 SWN      -0.127900
     19 C17        203.1230   -34.1410    87.0560 c6         1 SWN       0.105300
     20 N3         201.8770   -33.9010    86.3460 na         1 SWN       0.133800
     21 N2         201.2430   -34.8950    85.7370 nd         1 SWN      -0.527800
     22 N1         198.3760   -29.7060    84.8680 nb         1 SWN      -0.680000
     23 N          196.2180   -29.4000    83.8720 na         1 SWN      -0.327400
     24 C          194.9210   -32.7650    83.0120 c3         1 SWN       0.044100
     25 C6         192.4450   -32.3560    83.1950 ca         1 SWN      -0.106500
     26 C5         191.2120   -32.0420    82.6380 ca         1 SWN      -0.112000
     27 C4         191.1020   -31.8220    81.2710 ca         1 SWN      -0.112000
     28 H1         194.3380   -32.3050    80.3960 ha         1 SWN       0.114000
     29 H2         192.1540   -31.7520    79.4010 ha         1 SWN       0.112000
     30 H3         194.3450   -29.8230    82.9530 h4         1 SWN       0.222000
     31 H4         200.1700   -30.2730    85.6600 h4         1 SWN       0.013100
     32 H5         197.6910   -33.5130    84.3030 ha         1 SWN       0.119000
     33 H6         199.4790   -34.9610    84.6340 h4         1 SWN       0.036100
     34 H7         201.6190   -31.8260    86.6610 h4         1 SWN       0.153000
     35 H9         205.9010   -33.9990    87.2540 h1         1 SWN       0.055450
     36 H10        204.1210   -36.0230    89.7690 h1         1 SWN       0.055450
     37 H11        204.6060   -34.3800    89.3990 h1         1 SWN       0.055450
     38 H12        202.2050   -34.6290    88.9510 hc         1 SWN       0.063700
     39 H13        202.5010   -36.0180    87.9050 hc         1 SWN       0.063700
     40 H14        205.0570   -36.7420    87.7550 hn         1 SWN       0.410000
     41 H16        204.3880   -33.9880    85.3110 hc         1 SWN       0.063700
     42 H17        203.8480   -35.6260    85.6780 hc         1 SWN       0.063700
     43 H18        203.4410   -33.1600    87.4200 h1         1 SWN       0.058700
     44 H19        196.1570   -28.3960    83.9170 hn         1 SWN       0.361000
     45 H20        194.7870   -33.4370    83.8660 hc         1 SWN       0.054200
     46 H21        195.5380   -33.3150    82.2950 hc         1 SWN       0.054200
     47 H22        192.5240   -32.5270    84.2620 ha         1 SWN       0.114000
     48 H23        190.3380   -31.9720    83.2720 ha         1 SWN       0.112000
     49 H24        190.1420   -31.5800    80.8330 ha         1 SWN       0.112000
     50 H8         206.2320   -35.4010    86.2560 h1         1 SWN       0.055450
@<TRIPOS>BOND
     1     1     2 ar  
     2     1    24 1   
     3     1    25 ar  
     4     2     3 ar  
     5     2    28 1   
     6     3    27 ar  
     7     3    29 1   
     8     4     5 2   
     9     4    10 1   
    10     4    24 1   
    11     5    23 1   
    12     5    30 1   
    13     6    10 ar  
    14     6    22 ar  
    15     6    23 1   
    16     7     8 ar  
    17     7    22 ar  
    18     7    31 1   
    19     8     9 ar  
    20     8    11 1   
    21     9    10 ar  
    22     9    32 1   
    23    11    12 1   
    24    11    13 2   
    25    12    21 2   
    26    12    33 1   
    27    13    20 1   
    28    13    34 1   
    29    14    17 1   
    30    14    18 1   
    31    14    35 1   
    32    14    50 1   
    33    15    16 1   
    34    15    17 1   
    35    15    36 1   
    36    15    37 1   
    37    16    19 1   
    38    16    38 1   
    39    16    39 1   
    40    17    40 1   
    41    18    19 1   
    42    18    41 1   
    43    18    42 1   
    44    19    20 1   
    45    19    43 1   
    46    20    21 1   
    47    23    44 1   
    48    24    45 1   
    49    24    46 1   
    50    25    26 ar  
    51    25    47 1   
    52    26    27 ar  
    53    26    48 1   
    54    27    49 1   
@<TRIPOS>SUBSTRUCTURE
     1 SWN         1 TEMP              0 ****  ****    0 ROOT
