@<TRIPOS>MOLECULE
SWN
   50    54     1     0     0
SMALL
No Charge or Current Charge


@<TRIPOS>ATOM
      1 C1         193.6390   -32.4410    82.3640 ca         1 SWN      -0.082300
      2 C2         193.5520   -32.2090    80.9770 ca         1 SWN      -0.106500
      3 C3         192.3050   -31.9630    80.3760 ca         1 SWN      -0.112000
      4 C7         195.6780   -31.4380    83.4880 cc         1 SWN      -0.135400
      5 C8         195.2300   -30.1270    83.3860 cd         1 SWN      -0.140100
      6 C9         197.2340   -30.0390    84.4160 ca         1 SWN       0.365500
      7 C10        199.2430   -30.6230    85.3840 ca         1 SWN       0.358900
      8 C11        199.0310   -32.0080    85.1430 ca         1 SWN      -0.066000
      9 C12        197.8350   -32.3840    84.4970 ca         1 SWN      -0.029000
     10 C13        196.9510   -31.3560    84.1450 ca         1 SWN      -0.131800
     11 C14        200.0060   -33.0320    85.5420 cc         1 SWN      -0.145000
     12 C15        199.9720   -34.4290    85.3900 cc         1 SWN       0.247900
     13 C16        201.1810   -32.7360    86.1690 cd         1 SWN      -0.162000
     14 C19        205.5020   -35.0140    86.7610 c6         1 SWN       0.150300
     15 C20        204.3830   -35.2230    88.9570 c6         1 SWN       0.150300
     16 C21        202.9940   -35.0210    88.3090 c6         1 SWN      -0.127900
     17 N4         205.3330   -35.8250    87.9910 n7         1 SWN      -0.846400
     18 C18        204.1460   -34.8060    86.0490 c6         1 SWN      -0.127900
     19 C17        203.1110   -34.1720    87.0150 c6         1 SWN       0.105300
     20 N3         201.7910   -33.9820    86.3610 na         1 SWN       0.133800
     21 N2         201.0330   -35.0430    85.8720 nd         1 SWN      -0.527800
     22 N1         198.3640   -29.6470    85.0300 nb         1 SWN      -0.680000
     23 N          196.1920   -29.2600    83.9600 na         1 SWN      -0.327400
     24 C          194.9920   -32.6970    83.0180 c3         1 SWN       0.044100
     25 C6         192.4650   -32.4190    83.1430 ca         1 SWN      -0.106500
     26 C5         191.2190   -32.1740    82.5420 ca         1 SWN      -0.112000
     27 C4         191.1380   -31.9460    81.1580 ca         1 SWN      -0.112000
     28 H1         194.4510   -32.2160    80.3650 ha         1 SWN       0.114000
     29 H2         192.2440   -31.7850    79.3040 ha         1 SWN       0.112000
     30 H3         194.3050   -29.7550    82.9500 h4         1 SWN       0.222000
     31 H4         200.1460   -30.2720    85.8790 h4         1 SWN       0.013100
     32 H5         197.6010   -33.4230    84.2780 ha         1 SWN       0.119000
     33 H6         199.1910   -35.0240    84.9350 h4         1 SWN       0.036100
     34 H7         201.6280   -31.8020    86.4870 h4         1 SWN       0.153000
     35 H9         205.9350   -34.0350    87.0200 h1         1 SWN       0.055450
     36 H10        204.2880   -35.8720    89.8400 h1         1 SWN       0.055450
     37 H11        204.7720   -34.2520    89.3020 h1         1 SWN       0.055450
     38 H12        202.3210   -34.5280    89.0220 hc         1 SWN       0.063700
     39 H13        202.5500   -36.0000    88.0820 hc         1 SWN       0.063700
     40 H14        204.9770   -36.7510    87.7210 hn         1 SWN       0.410000
     41 H16        204.2840   -34.1610    85.1710 hc         1 SWN       0.063700
     42 H17        203.7770   -35.7710    85.6750 hc         1 SWN       0.063700
     43 H18        203.4840   -33.1780    87.3000 h1         1 SWN       0.058700
     44 H19        196.1420   -28.2510    84.0320 hn         1 SWN       0.361000
     45 H20        194.8690   -33.3780    83.8690 hc         1 SWN       0.054200
     46 H21        195.6500   -33.2220    82.3140 hc         1 SWN       0.054200
     47 H22        192.5200   -32.5900    84.2170 ha         1 SWN       0.114000
     48 H23        190.3160   -32.1580    83.1490 ha         1 SWN       0.112000
     49 H24        190.1730   -31.7560    80.6930 ha         1 SWN       0.112000
     50 H8         206.2060   -35.5140    86.0780 h1         1 SWN       0.055450
@<TRIPOS>BOND
     1     1     2 ar  
     2     1    24 1   
     3     1    25 ar  
     4     2     3 ar  
     5     2    28 1   
     6     3    27 ar  
     7     3    29 1   
     8     4     5 2   
     9     4    10 1   
    10     4    24 1   
    11     5    23 1   
    12     5    30 1   
    13     6    10 ar  
    14     6    22 ar  
    15     6    23 1   
    16     7     8 ar  
    17     7    22 ar  
    18     7    31 1   
    19     8     9 ar  
    20     8    11 1   
    21     9    10 ar  
    22     9    32 1   
    23    11    12 1   
    24    11    13 2   
    25    12    21 2   
    26    12    33 1   
    27    13    20 1   
    28    13    34 1   
    29    14    17 1   
    30    14    18 1   
    31    14    35 1   
    32    14    50 1   
    33    15    16 1   
    34    15    17 1   
    35    15    36 1   
    36    15    37 1   
    37    16    19 1   
    38    16    38 1   
    39    16    39 1   
    40    17    40 1   
    41    18    19 1   
    42    18    41 1   
    43    18    42 1   
    44    19    20 1   
    45    19    43 1   
    46    20    21 1   
    47    23    44 1   
    48    24    45 1   
    49    24    46 1   
    50    25    26 ar  
    51    25    47 1   
    52    26    27 ar  
    53    26    48 1   
    54    27    49 1   
@<TRIPOS>SUBSTRUCTURE
     1 SWN         1 TEMP              0 ****  ****    0 ROOT
