@<TRIPOS>MOLECULE
SWO
   40    40     1     0     0
SMALL
abcg2


@<TRIPOS>ATOM
      1 C10        105.1560   106.6590   134.5380 c3         1 SWO      -0.076400
      2 C13        102.4530   108.1410   135.2590 c3         1 SWO      -0.077400
      3 C15        101.0580   110.2260   135.6960 c3         1 SWO      -0.088100
      4 C01        106.9140   108.0900   138.9110 ca         1 SWO       0.200100
      5 C02        106.9310   108.2450   137.5210 ca         1 SWO      -0.227000
      6 C03        107.9520   107.6520   136.7990 ca         1 SWO       0.424300
      7 N04        108.9310   106.9390   137.3920 nb         1 SWO      -0.790000
      8 C05        108.8950   106.8080   138.7090 ca         1 SWO       0.611300
      9 C06        107.9130   107.3560   139.5320 ca         1 SWO      -0.287000
     10 C07        108.0070   107.7480   135.2990 c3         1 SWO      -0.128700
     11 C08        107.7140   106.4050   134.6060 c3         1 SWO      -0.065400
     12 C09        106.3500   105.7980   134.9440 c3         1 SWO      -0.077400
     13 C11        103.8150   105.9990   134.8560 c3         1 SWO      -0.073400
     14 C12        102.5940   106.8380   134.4720 c3         1 SWO      -0.072400
     15 C14        101.1850   108.9200   134.9160 c3         1 SWO      -0.076400
     16 O17        109.8860   106.0940   139.2960 oh         1 SWO      -0.651300
     17 H1         105.2100   106.8720   133.4640 hc         1 SWO       0.037200
     18 H2         105.2120   107.6240   135.0450 hc         1 SWO       0.037200
     19 H3         102.4580   107.9140   136.3320 hc         1 SWO       0.037700
     20 H4         103.3200   108.7820   135.0780 hc         1 SWO       0.037700
     21 H5         100.1430   110.7630   135.4350 hc         1 SWO       0.031700
     22 H6         101.0400   110.0370   136.7730 hc         1 SWO       0.031700
     23 H7         101.9040   110.8870   135.4900 hc         1 SWO       0.031700
     24 H8         106.1540   108.8110   137.0290 ha         1 SWO       0.140000
     25 H9         107.9380   107.2110   140.6030 ha         1 SWO       0.138000
     26 H11        109.0060   108.0800   135.0070 hc         1 SWO       0.055700
     27 H12        107.3000   108.5070   134.9620 hc         1 SWO       0.055700
     28 H13        108.4990   105.6960   134.8790 hc         1 SWO       0.046700
     29 H14        107.7880   106.5570   133.5250 hc         1 SWO       0.046700
     30 H15        106.2980   105.6000   136.0200 hc         1 SWO       0.040700
     31 H16        106.2720   104.8230   134.4510 hc         1 SWO       0.040700
     32 H17        103.7730   105.7750   135.9280 hc         1 SWO       0.037700
     33 H18        103.7640   105.0350   134.3390 hc         1 SWO       0.037700
     34 H19        101.6890   106.2390   134.6210 hc         1 SWO       0.036700
     35 H20        102.6360   107.0680   133.4010 hc         1 SWO       0.036700
     36 H21        100.3100   108.2890   135.1110 hc         1 SWO       0.035700
     37 H22        101.1750   109.1330   133.8410 hc         1 SWO       0.035700
     38 H23        105.9920   108.4980   140.5440 ho         1 SWO       0.471000
     39 H24        110.4780   105.7820   138.5930 ho         1 SWO       0.483000
     40 O16        105.9040   108.6750   139.5960 oh         1 SWO      -0.528100
@<TRIPOS>BOND
     1     1    12 1   
     2     1    13 1   
     3     1    17 1   
     4     1    18 1   
     5     2    14 1   
     6     2    15 1   
     7     2    19 1   
     8     2    20 1   
     9     3    15 1   
    10     3    21 1   
    11     3    22 1   
    12     3    23 1   
    13     4     5 ar  
    14     4     9 ar  
    15     4    40 1   
    16     5     6 ar  
    17     5    24 1   
    18     6     7 ar  
    19     6    10 1   
    20     7     8 ar  
    21     8     9 ar  
    22     8    16 1   
    23     9    25 1   
    24    10    11 1   
    25    10    26 1   
    26    10    27 1   
    27    11    12 1   
    28    11    28 1   
    29    11    29 1   
    30    12    30 1   
    31    12    31 1   
    32    13    14 1   
    33    13    32 1   
    34    13    33 1   
    35    14    34 1   
    36    14    35 1   
    37    15    36 1   
    38    15    37 1   
    39    16    39 1   
    40    38    40 1   
@<TRIPOS>SUBSTRUCTURE
     1 SWO         1 TEMP              0 ****  ****    0 ROOT
