@<TRIPOS>MOLECULE
SWO
   40    40     1     0     0
SMALL
No Charge or Current Charge


@<TRIPOS>ATOM
      1 C10        105.1090   106.6830   134.5660 c3         1 SWO      -0.076400
      2 C13        102.3500   108.2190   135.1790 c3         1 SWO      -0.077400
      3 C15        100.8980   110.3210   135.4960 c3         1 SWO      -0.088100
      4 C01        107.0050   107.9020   139.0440 ca         1 SWO       0.200100
      5 C02        106.9660   108.0470   137.6560 ca         1 SWO      -0.227000
      6 C03        108.0470   107.5800   136.8930 ca         1 SWO       0.424300
      7 N04        109.1340   107.0000   137.4510 nb         1 SWO      -0.790000
      8 C05        109.1440   106.8760   138.7740 ca         1 SWO       0.611300
      9 C06        108.1230   107.3010   139.6210 ca         1 SWO      -0.287000
     10 C07        108.0530   107.7080   135.3750 c3         1 SWO      -0.128700
     11 C08        107.6950   106.3920   134.6370 c3         1 SWO      -0.065400
     12 C09        106.3070   105.7970   134.9820 c3         1 SWO      -0.077400
     13 C11        103.7430   106.0390   134.8990 c3         1 SWO      -0.073400
     14 C12        102.5170   106.8670   134.4460 c3         1 SWO      -0.072400
     15 C14        101.0650   108.9720   134.7690 c3         1 SWO      -0.076400
     16 O17        110.2490   106.2940   139.2440 oh         1 SWO      -0.651300
     17 H1         105.1640   106.8800   133.4880 hc         1 SWO       0.037200
     18 H2         105.1830   107.6510   135.0730 hc         1 SWO       0.037200
     19 H3         102.3330   108.0430   136.2620 hc         1 SWO       0.037700
     20 H4         103.2140   108.8610   134.9710 hc         1 SWO       0.037700
     21 H5          99.9750   110.8170   135.1730 hc         1 SWO       0.031700
     22 H6         100.8470   110.1730   136.5810 hc         1 SWO       0.031700
     23 H7         101.7410   110.9870   135.2760 hc         1 SWO       0.031700
     24 H8         106.1100   108.5110   137.1760 ha         1 SWO       0.140000
     25 H9         108.2110   107.1610   140.6930 ha         1 SWO       0.138000
     26 H11        109.0460   108.0330   135.0420 hc         1 SWO       0.055700
     27 H12        107.3670   108.5020   135.0620 hc         1 SWO       0.055700
     28 H13        108.4610   105.6410   134.8680 hc         1 SWO       0.046700
     29 H14        107.7510   106.5640   133.5550 hc         1 SWO       0.046700
     30 H15        106.2530   105.5920   136.0580 hc         1 SWO       0.040700
     31 H16        106.2150   104.8260   134.4790 hc         1 SWO       0.040700
     32 H17        103.6780   105.8620   135.9800 hc         1 SWO       0.037700
     33 H18        103.6910   105.0550   134.4170 hc         1 SWO       0.037700
     34 H19        101.6150   106.2640   134.6110 hc         1 SWO       0.036700
     35 H20        102.5800   107.0450   133.3650 hc         1 SWO       0.036700
     36 H21        100.1910   108.3440   134.9800 hc         1 SWO       0.035700
     37 H22        101.0780   109.1500   133.6860 hc         1 SWO       0.035700
     38 H23        106.1850   108.1540   140.7500 ho         1 SWO       0.471000
     39 H24        110.7490   106.1230   138.4220 ho         1 SWO       0.483000
     40 O16        105.9720   108.3410   139.8110 oh         1 SWO      -0.528100
@<TRIPOS>BOND
     1     1    12 1   
     2     1    13 1   
     3     1    17 1   
     4     1    18 1   
     5     2    14 1   
     6     2    15 1   
     7     2    19 1   
     8     2    20 1   
     9     3    15 1   
    10     3    21 1   
    11     3    22 1   
    12     3    23 1   
    13     4     5 ar  
    14     4     9 ar  
    15     4    40 1   
    16     5     6 ar  
    17     5    24 1   
    18     6     7 ar  
    19     6    10 1   
    20     7     8 ar  
    21     8     9 ar  
    22     8    16 1   
    23     9    25 1   
    24    10    11 1   
    25    10    26 1   
    26    10    27 1   
    27    11    12 1   
    28    11    28 1   
    29    11    29 1   
    30    12    30 1   
    31    12    31 1   
    32    13    14 1   
    33    13    32 1   
    34    13    33 1   
    35    14    34 1   
    36    14    35 1   
    37    15    36 1   
    38    15    37 1   
    39    16    39 1   
    40    38    40 1   
@<TRIPOS>SUBSTRUCTURE
     1 SWO         1 TEMP              0 ****  ****    0 ROOT
