@<TRIPOS>MOLECULE
SWP
   71    75     1     0     0
SMALL
abcg2


@<TRIPOS>ATOM
      1 N14         47.6440   -22.6440    32.8420 ns         1 SWP      -0.139000
      2 C13         44.4960   -22.4360    30.9820 ca         1 SWP       0.015000
      3 C18         50.7670   -22.5430    34.4720 c3         1 SWP       0.171900
      4 C15         48.8870   -22.1650    33.1130 c          1 SWP       0.646100
      5 C20         42.7670   -23.8100    29.9180 c          1 SWP       0.605100
      6 C21         41.4170   -24.4650    30.1720 c3         1 SWP      -0.135700
      7 C23         40.2860   -23.4270    30.0180 c3         1 SWP      -0.067400
      8 C24         39.0870   -18.2920    29.8530 c          1 SWP       0.560200
      9 C11         46.7200   -22.1640    31.9180 ca         1 SWP       0.019000
     10 C12         45.4950   -22.8300    31.8580 ca         1 SWP      -0.199000
     11 C34         34.7760   -14.3900    28.8570 ca         1 SWP       0.044000
     12 C27         37.5510   -18.0010    27.4530 c6         1 SWP      -0.059200
     13 C33         35.0950   -13.4780    27.8640 ca         1 SWP      -0.047000
     14 CL1         33.3860   -14.1780    29.8490 cl         1 SWP      -0.157000
     15 C2          39.9150   -20.4280    29.0930 c3         1 SWP       0.064400
     16 C3          39.2530   -21.6550    28.4450 c3         1 SWP      -0.075400
     17 C4          40.0690   -22.9420    28.5840 c3         1 SWP      -0.079400
     18 N5          39.1800   -19.1940    28.8450 n          1 SWP      -0.392800
     19 C6          41.3700   -20.3470    28.6970 ca         1 SWP       0.323300
     20 C7          43.6620   -20.8550    29.2070 cp         1 SWP       0.023000
     21 C8          44.7020   -21.3440    30.1270 cp         1 SWP      -0.065000
     22 C9          45.9410   -20.7130    30.1770 ca         1 SWP      -0.056000
     23 C10         46.9440   -21.0950    31.0510 ca         1 SWP      -0.145000
     24 O16         49.4190   -21.2150    32.5840 o          1 SWP      -0.518000
     25 O17         49.4490   -22.9050    34.0660 os         1 SWP      -0.458100
     26 N19         43.2850   -23.1580    30.9940 ns         1 SWP      -0.177000
     27 C25         38.3320   -17.0490    29.5670 ce         1 SWP      -0.238200
     28 C26         37.5730   -16.9120    28.4810 cf         1 SWP      -0.019400
     29 C28         38.8580   -18.7650    27.4880 c6         1 SWP       0.109000
     30 C30         36.7180   -15.7240    28.2830 ca         1 SWP      -0.141800
     31 C31         36.9980   -14.7880    27.2970 ca         1 SWP       0.214000
     32 C32         36.2170   -13.6730    27.0740 ca         1 SWP      -0.164000
     33 C35         35.5880   -15.4950    29.0540 ca         1 SWP       0.222000
     34 F36         38.0880   -14.9830    26.5490 f          1 SWP      -0.162000
     35 F37         35.2670   -16.3720    30.0000 f          1 SWP      -0.147000
     36 C38         41.2160   -25.6830    29.2820 c3         1 SWP      -0.079100
     37 N39         41.6530   -20.0700    27.4280 nb         1 SWP      -0.676000
     38 C40         42.9220   -20.1410    27.0480 ca         1 SWP       0.336900
     39 C41         43.9510   -20.5520    27.8800 ca         1 SWP      -0.140000
     40 C42         42.3460   -20.6820    29.6230 ca         1 SWP      -0.133000
     41 H51         47.3490   -23.4470    33.3770 hn         1 SWP       0.167000
     42 H52         51.0410   -23.2510    35.2480 h1         1 SWP       0.051700
     43 H53         51.4750   -22.6210    33.6480 h1         1 SWP       0.051700
     44 H54         50.7980   -21.5330    34.8800 h1         1 SWP       0.051700
     45 H56         41.3950   -24.7980    31.2160 hc         1 SWP       0.048700
     46 H58         40.4880   -22.5950    30.6960 hc         1 SWP       0.043700
     47 H57         39.3630   -23.8820    30.3870 hc         1 SWP       0.043700
     48 H50         45.3200   -23.6860    32.5000 ha         1 SWP       0.114000
     49 H60         37.4020   -17.5960    26.4520 hc         1 SWP       0.066200
     50 H61         36.6980   -18.6600    27.6480 hc         1 SWP       0.066200
     51 H65         34.4670   -12.6120    27.7070 ha         1 SWP       0.138000
     52 H43         39.8790   -20.5690    30.1720 h1         1 SWP       0.084700
     53 H44         39.1040   -21.4850    27.3770 hc         1 SWP       0.050700
     54 H45         38.2600   -21.7830    28.8850 hc         1 SWP       0.050700
     55 H47         39.5520   -23.7220    28.0210 hc         1 SWP       0.054700
     56 H46         41.0300   -22.8110    28.0820 hc         1 SWP       0.054700
     57 H48         46.1240   -19.8670    29.5260 ha         1 SWP       0.122000
     58 H49         47.8750   -20.5550    31.0520 ha         1 SWP       0.153000
     59 H55         42.8530   -23.3100    31.8930 hn         1 SWP       0.154000
     60 H59         38.3740   -16.2900    30.3370 ha         1 SWP       0.209000
     61 H63         38.7930   -19.6350    26.8440 h1         1 SWP       0.060700
     62 H62         39.6600   -18.1380    27.0880 h1         1 SWP       0.060700
     63 H64         36.4780   -12.9630    26.3030 ha         1 SWP       0.144000
     64 H68         41.9700   -26.4470    29.4770 hc         1 SWP       0.044367
     65 H67         40.2380   -26.1260    29.4750 hc         1 SWP       0.044367
     66 H66         41.2640   -25.4300    28.2240 hc         1 SWP       0.044367
     67 H69         43.1330   -19.8880    26.0150 h4         1 SWP       0.017100
     68 H70         44.9530   -20.6620    27.4860 ha         1 SWP       0.127000
     69 H71         42.0680   -20.8550    30.6540 ha         1 SWP       0.130000
     70 O22         43.3340   -23.8330    28.8420 o          1 SWP      -0.569100
     71 O29         39.5490   -18.4750    30.9730 o          1 SWP      -0.561000
@<TRIPOS>BOND
     1     1     4 1   
     2     1     9 1   
     3     1    41 1   
     4     2    10 ar  
     5     2    21 ar  
     6     2    26 1   
     7     3    25 1   
     8     3    42 1   
     9     3    43 1   
    10     3    44 1   
    11     4    24 2   
    12     4    25 1   
    13     5     6 1   
    14     5    26 1   
    15     5    70 2   
    16     6     7 1   
    17     6    36 1   
    18     6    45 1   
    19     7    17 1   
    20     7    46 1   
    21     7    47 1   
    22     8    18 1   
    23     8    27 1   
    24     8    71 2   
    25     9    10 ar  
    26     9    23 ar  
    27    10    48 1   
    28    11    13 ar  
    29    11    14 1   
    30    11    33 ar  
    31    12    28 1   
    32    12    29 1   
    33    12    49 1   
    34    12    50 1   
    35    13    32 ar  
    36    13    51 1   
    37    15    16 1   
    38    15    18 1   
    39    15    19 1   
    40    15    52 1   
    41    16    17 1   
    42    16    53 1   
    43    16    54 1   
    44    17    55 1   
    45    17    56 1   
    46    18    29 1   
    47    19    37 ar  
    48    19    40 ar  
    49    20    21 1   
    50    20    39 ar  
    51    20    40 ar  
    52    21    22 ar  
    53    22    23 ar  
    54    22    57 1   
    55    23    58 1   
    56    26    59 1   
    57    27    28 2   
    58    27    60 1   
    59    28    30 1   
    60    29    61 1   
    61    29    62 1   
    62    30    31 ar  
    63    30    33 ar  
    64    31    32 ar  
    65    31    34 1   
    66    32    63 1   
    67    33    35 1   
    68    36    64 1   
    69    36    65 1   
    70    36    66 1   
    71    37    38 ar  
    72    38    39 ar  
    73    38    67 1   
    74    39    68 1   
    75    40    69 1   
@<TRIPOS>SUBSTRUCTURE
     1 SWP         1 TEMP              0 ****  ****    0 ROOT
