@<TRIPOS>MOLECULE
SWP
   71    75     1     0     0
SMALL
No Charge or Current Charge


@<TRIPOS>ATOM
      1 N14         47.7070   -22.5290    32.9460 ns         1 SWP      -0.139000
      2 C13         44.5860   -22.5180    30.9180 ca         1 SWP       0.015000
      3 C18         50.7500   -22.4500    34.8430 c3         1 SWP       0.171900
      4 C15         48.9140   -21.9930    33.3540 c          1 SWP       0.646100
      5 C20         42.8470   -23.8770    29.6580 c          1 SWP       0.605100
      6 C21         41.5150   -24.6270    29.9270 c3         1 SWP      -0.135700
      7 C23         40.2750   -23.7060    29.7200 c3         1 SWP      -0.067400
      8 C24         39.3140   -18.2540    29.6510 c          1 SWP       0.560200
      9 C11         46.7310   -22.0820    32.0160 ca         1 SWP       0.019000
     10 C12         45.5910   -22.8820    31.8310 ca         1 SWP      -0.199000
     11 C34         35.4400   -13.7280    29.1630 ca         1 SWP       0.044000
     12 C27         37.0200   -18.0610    27.8420 c6         1 SWP      -0.059200
     13 C33         35.3670   -13.1760    27.8740 ca         1 SWP      -0.047000
     14 Cl1         34.6210   -12.9170    30.4970 cl         1 SWP      -0.157000
     15 C2          39.7790   -20.6110    28.9410 c3         1 SWP       0.064400
     16 C3          39.2050   -21.8600    28.1870 c3         1 SWP      -0.075400
     17 C4          40.0640   -23.1540    28.2830 c3         1 SWP      -0.079400
     18 N5          38.9860   -19.3420    28.8080 n          1 SWP      -0.392800
     19 C6          41.2780   -20.4280    28.6310 ca         1 SWP       0.323300
     20 C7          43.6190   -20.7990    29.2480 cp         1 SWP       0.023000
     21 C8          44.6770   -21.2910    30.1890 cp         1 SWP      -0.065000
     22 C9          45.8370   -20.5030    30.3820 ca         1 SWP      -0.056000
     23 C10         46.8500   -20.8880    31.2760 ca         1 SWP      -0.145000
     24 O16         49.4160   -20.9480    32.9640 o          1 SWP      -0.518000
     25 O17         49.4770   -22.8260    34.2830 os         1 SWP      -0.458100
     26 N19         43.4660   -23.3780    30.7930 ns         1 SWP      -0.177000
     27 C25         38.6110   -16.9700    29.4110 ce         1 SWP      -0.238200
     28 C26         37.5710   -16.8190    28.5520 cf         1 SWP      -0.019400
     29 C28         38.1160   -19.1250    27.6160 c6         1 SWP       0.109000
     30 C30         36.8130   -15.5750    28.3110 ca         1 SWP      -0.141800
     31 C31         36.7380   -15.0010    27.0230 ca         1 SWP       0.214000
     32 C32         36.0200   -13.8130    26.8050 ca         1 SWP      -0.164000
     33 C35         36.1630   -14.9190    29.3800 ca         1 SWP       0.222000
     34 F36         37.3860   -15.5690    25.9810 f          1 SWP      -0.162000
     35 F37         36.2190   -15.4470    30.6250 f          1 SWP      -0.147000
     36 C38         41.4250   -25.9660    29.1540 c3         1 SWP      -0.079100
     37 N39         41.6140   -19.9810    27.3950 nb         1 SWP      -0.676000
     38 C40         42.9270   -19.9140    27.0820 ca         1 SWP       0.336900
     39 C41         43.9450   -20.3160    27.9600 ca         1 SWP      -0.140000
     40 C42         42.2460   -20.8060    29.5820 ca         1 SWP      -0.133000
     41 H51         47.4790   -23.4040    33.3970 hn         1 SWP       0.167000
     42 H52         51.0840   -23.2010    35.5690 h1         1 SWP       0.051700
     43 H53         51.5150   -22.3710    34.0590 h1         1 SWP       0.051700
     44 H54         50.6810   -21.4850    35.3600 h1         1 SWP       0.051700
     45 H56         41.4970   -24.8640    30.9980 hc         1 SWP       0.048700
     46 H58         40.3620   -22.8810    30.4320 hc         1 SWP       0.043700
     47 H57         39.3700   -24.2500    30.0180 hc         1 SWP       0.043700
     48 H50         45.4900   -23.8080    32.3930 ha         1 SWP       0.114000
     49 H60         36.5450   -17.8090    26.8850 hc         1 SWP       0.066200
     50 H61         36.2290   -18.4920    28.4700 hc         1 SWP       0.066200
     51 H65         34.8110   -12.2570    27.7060 ha         1 SWP       0.138000
     52 H43         39.7150   -20.8610    30.0060 h1         1 SWP       0.084700
     53 H44         39.1150   -21.6260    27.1200 hc         1 SWP       0.050700
     54 H45         38.1940   -22.0710    28.5570 hc         1 SWP       0.050700
     55 H47         39.5870   -23.9350    27.6790 hc         1 SWP       0.054700
     56 H46         41.0250   -22.9610    27.7980 hc         1 SWP       0.054700
     57 H48         45.9440   -19.5650    29.8420 ha         1 SWP       0.122000
     58 H49         47.7130   -20.2380    31.3850 ha         1 SWP       0.153000
     59 H55         43.0290   -23.6330    31.6700 hn         1 SWP       0.154000
     60 H59         38.9660   -16.1190    29.9880 ha         1 SWP       0.209000
     61 H63         37.6140   -20.0530    27.3160 h1         1 SWP       0.060700
     62 H62         38.7540   -18.8080    26.7780 h1         1 SWP       0.060700
     63 H64         35.9770   -13.3850    25.8070 ha         1 SWP       0.144000
     64 H68         42.2770   -26.6110    29.4000 hc         1 SWP       0.044367
     65 H67         40.5050   -26.5030    29.4150 hc         1 SWP       0.044367
     66 H66         41.4270   -25.7970    28.0700 hc         1 SWP       0.044367
     67 H69         43.1690   -19.5500    26.0840 h4         1 SWP       0.017100
     68 H70         44.9790   -20.2740    27.6320 ha         1 SWP       0.127000
     69 H71         41.9340   -21.1380    30.5670 ha         1 SWP       0.130000
     70 O22         43.3150   -23.7380    28.5340 o          1 SWP      -0.569100
     71 O29         40.1470   -18.3510    30.5420 o          1 SWP      -0.561000
@<TRIPOS>BOND
     1     1     4 1   
     2     1     9 1   
     3     1    41 1   
     4     2    10 ar  
     5     2    21 ar  
     6     2    26 1   
     7     3    25 1   
     8     3    42 1   
     9     3    43 1   
    10     3    44 1   
    11     4    24 2   
    12     4    25 1   
    13     5     6 1   
    14     5    26 1   
    15     5    70 2   
    16     6     7 1   
    17     6    36 1   
    18     6    45 1   
    19     7    17 1   
    20     7    46 1   
    21     7    47 1   
    22     8    18 1   
    23     8    27 1   
    24     8    71 2   
    25     9    10 ar  
    26     9    23 ar  
    27    10    48 1   
    28    11    13 ar  
    29    11    14 1   
    30    11    33 ar  
    31    12    28 1   
    32    12    29 1   
    33    12    49 1   
    34    12    50 1   
    35    13    32 ar  
    36    13    51 1   
    37    15    16 1   
    38    15    18 1   
    39    15    19 1   
    40    15    52 1   
    41    16    17 1   
    42    16    53 1   
    43    16    54 1   
    44    17    55 1   
    45    17    56 1   
    46    18    29 1   
    47    19    37 ar  
    48    19    40 ar  
    49    20    21 1   
    50    20    39 ar  
    51    20    40 ar  
    52    21    22 ar  
    53    22    23 ar  
    54    22    57 1   
    55    23    58 1   
    56    26    59 1   
    57    27    28 2   
    58    27    60 1   
    59    28    30 1   
    60    29    61 1   
    61    29    62 1   
    62    30    31 ar  
    63    30    33 ar  
    64    31    32 ar  
    65    31    34 1   
    66    32    63 1   
    67    33    35 1   
    68    36    64 1   
    69    36    65 1   
    70    36    66 1   
    71    37    38 ar  
    72    38    39 ar  
    73    38    67 1   
    74    39    68 1   
    75    40    69 1   
@<TRIPOS>SUBSTRUCTURE
     1 SWP         1 TEMP              0 ****  ****    0 ROOT
