@<TRIPOS>MOLECULE
SWQ
   29    31     1     0     0
SMALL
No Charge or Current Charge


@<TRIPOS>ATOM
      1 C01         31.2500    65.0880    69.0680 c3         1 SWQ       0.017900
      2 C03         30.2860    65.7880    71.7230 ca         1 SWQ      -0.104000
      3 C04         30.2020    65.6860    73.1230 ca         1 SWQ      -0.072000
      4 C05         29.3210    66.5080    73.8450 ca         1 SWQ      -0.107000
      5 C06         28.5110    67.4370    73.1710 ca         1 SWQ      -0.069000
      6 C07         28.5790    67.5380    71.7680 ca         1 SWQ      -0.146000
      7 C08         29.4720    66.7230    71.0480 ca         1 SWQ      -0.080000
      8 C10         26.0890    68.0710    71.5990 cc         1 SWQ       0.358300
      9 C13         23.2750    69.1060    73.7170 c          1 SWQ       0.542800
     10 C17         23.8060    67.1710    72.6570 cd         1 SWQ      -0.085000
     11 C18         24.5290    66.2430    71.8460 cd         1 SWQ      -0.058000
     12 C19         25.6930    66.7240    71.3060 cc         1 SWQ      -0.108000
     13 N11         25.4230    68.9630    72.3280 nd         1 SWQ      -0.366800
     14 N12         24.2270    68.4850    72.8930 n          1 SWQ       0.079000
     15 N15         22.3750    68.0930    73.8930 ns         1 SWQ      -0.368400
     16 N16         22.6610    66.9180    73.2710 nc         1 SWQ      -0.178600
     17 O14         23.2410    70.2450    74.1660 o          1 SWQ      -0.511000
     18 S02         31.4400    64.7080    70.8670 ss         1 SWQ      -0.151000
     19 S09         27.5590    68.7160    70.8720 ss         1 SWQ      -0.101300
     20 H1          31.9280    64.4500    68.4880 h1         1 SWQ       0.068700
     21 H2          30.2180    64.8930    68.7530 h1         1 SWQ       0.068700
     22 H3          31.5020    66.1390    68.8810 h1         1 SWQ       0.068700
     23 H4          30.8250    64.9690    73.6540 ha         1 SWQ       0.128000
     24 H5          29.2680    66.4280    74.9290 ha         1 SWQ       0.122000
     25 H6          27.8420    68.0760    73.7420 ha         1 SWQ       0.133000
     26 H7          29.5140    66.8270    69.9680 ha         1 SWQ       0.129000
     27 H8          24.1810    65.2290    71.6680 ha         1 SWQ       0.150000
     28 H9          26.3200    66.1090    70.6710 ha         1 SWQ       0.144000
     29 H10         21.5390    68.2220    74.4600 hn         1 SWQ       0.495000
@<TRIPOS>BOND
     1     1    18 1   
     2     1    20 1   
     3     1    21 1   
     4     1    22 1   
     5     2     3 ar  
     6     2     7 ar  
     7     2    18 1   
     8     3     4 ar  
     9     3    23 1   
    10     4     5 ar  
    11     4    24 1   
    12     5     6 ar  
    13     5    25 1   
    14     6     7 ar  
    15     6    19 1   
    16     7    26 1   
    17     8    12 1   
    18     8    13 2   
    19     8    19 1   
    20     9    14 1   
    21     9    15 1   
    22     9    17 2   
    23    10    11 1   
    24    10    14 1   
    25    10    16 2   
    26    11    12 2   
    27    11    27 1   
    28    12    28 1   
    29    13    14 1   
    30    15    16 1   
    31    15    29 1   
@<TRIPOS>SUBSTRUCTURE
     1 SWQ         1 TEMP              0 ****  ****    0 ROOT
