@<TRIPOS>MOLECULE
SWQ
   29    31     1     0     0
SMALL
bcc


@<TRIPOS>ATOM
      1 C01         30.6950    65.2960    68.8850 c3         1 SWQ      -0.030000
      2 C03         30.4040    65.7730    71.6280 ca         1 SWQ       0.022900
      3 C04         30.6230    65.5410    72.9890 ca         1 SWQ      -0.090000
      4 C05         29.9520    66.2840    73.9440 ca         1 SWQ      -0.125000
      5 C06         29.0530    67.2750    73.5690 ca         1 SWQ      -0.087000
      6 C07         28.8290    67.4950    72.2170 ca         1 SWQ      -0.019100
      7 C08         29.4970    66.7570    71.2440 ca         1 SWQ      -0.098000
      8 C10         26.1520    68.0820    72.1170 cc         1 SWQ       0.423600
      9 C13         22.8900    69.2100    72.8730 c          1 SWQ       0.685300
     10 C17         23.6670    67.1170    72.6110 cd         1 SWQ      -0.034300
     11 C18         24.6940    66.1710    72.3380 cd         1 SWQ      -0.076000
     12 C19         25.9270    66.6550    72.0900 cc         1 SWQ      -0.191300
     13 N11         25.2350    68.9510    72.3700 nd         1 SWQ      -0.366800
     14 N12         24.0200    68.4450    72.5940 n          1 SWQ       0.028300
     15 N15         21.9560    68.2380    73.0300 ns         1 SWQ      -0.321900
     16 N16         22.4080    66.9690    72.8760 nc         1 SWQ      -0.178600
     17 O14         22.8020    70.4180    72.9460 o          1 SWQ      -0.586500
     18 S02         31.3050    64.7750    70.4970 ss         1 SWQ      -0.230000
     19 S09         27.7160    68.7750    71.6940 ss         1 SWQ      -0.228200
     20 H1          31.2170    64.6770    68.1570 h1         1 SWQ       0.068700
     21 H2          29.6250    65.1220    68.7840 h1         1 SWQ       0.068700
     22 H3          30.9270    66.3390    68.6810 h1         1 SWQ       0.068700
     23 H4          31.3220    64.7750    73.3020 ha         1 SWQ       0.146000
     24 H5          30.1350    66.0930    74.9930 ha         1 SWQ       0.140000
     25 H6          28.5360    67.8620    74.3150 ha         1 SWQ       0.151000
     26 H7          29.2920    66.9560    70.2020 ha         1 SWQ       0.147000
     27 H8          24.4680    65.1140    72.3230 ha         1 SWQ       0.168000
     28 H9          26.7450    65.9890    71.8610 ha         1 SWQ       0.162000
     29 H10         20.9840    68.3990    73.2460 hn         1 SWQ       0.381500
@<TRIPOS>BOND
     1     1    18 1   
     2     1    20 1   
     3     1    21 1   
     4     1    22 1   
     5     2     3 ar  
     6     2     7 ar  
     7     2    18 1   
     8     3     4 ar  
     9     3    23 1   
    10     4     5 ar  
    11     4    24 1   
    12     5     6 ar  
    13     5    25 1   
    14     6     7 ar  
    15     6    19 1   
    16     7    26 1   
    17     8    12 1   
    18     8    13 2   
    19     8    19 1   
    20     9    14 1   
    21     9    15 1   
    22     9    17 2   
    23    10    11 1   
    24    10    14 1   
    25    10    16 2   
    26    11    12 2   
    27    11    27 1   
    28    12    28 1   
    29    13    14 1   
    30    15    16 1   
    31    15    29 1   
@<TRIPOS>SUBSTRUCTURE
     1 SWQ         1 TEMP              0 ****  ****    0 ROOT
