@<TRIPOS>MOLECULE
SWS
   55    58     1     0     0
SMALL
No Charge or Current Charge


@<TRIPOS>ATOM
      1 C10         68.0520    -4.0440    80.1720 c6         1 SWS      -0.066400
      2 C15         63.0520    -7.5720    75.8120 ca         1 SWS       0.420900
      3 C17         60.8090    -7.0080    76.0260 ca         1 SWS       0.357000
      4 C21         60.0850    -5.2230    77.4800 ca         1 SWS       0.426900
      5 C22         61.1240    -5.9930    76.9410 ca         1 SWS      -0.220000
      6 C26         55.1600    -6.7470    75.5410 cy         1 SWS      -0.117400
      7 C01         71.2300    -3.7600    79.7480 c3         1 SWS      -0.100600
      8 C02         70.1920    -2.6190    79.5860 c3         1 SWS       0.189000
      9 C03         70.1330    -1.7990    80.9000 c3         1 SWS      -0.100600
     10 C05         68.7610    -3.1190    79.1310 c6         1 SWS      -0.087700
     11 C06         68.7570    -3.8200    77.7340 c6         1 SWS      -0.066400
     12 C07         67.3230    -4.2050    77.2920 c6         1 SWS      -0.091900
     13 C08         66.6420    -5.1310    78.3310 c6         1 SWS       0.110700
     14 C09         66.6250    -4.4320    79.7120 c6         1 SWS      -0.091900
     15 C14         63.4570    -6.5790    76.7190 ca         1 SWS      -0.241600
     16 C18         59.4680    -7.1970    75.6990 ca         1 SWS      -0.242000
     17 C19         58.5000    -6.3800    76.2840 ca         1 SWS       0.638900
     18 C23         62.4630    -5.7650    77.3010 ca         1 SWS       0.007000
     19 C25         56.0120    -5.6410    76.2440 cy         1 SWS       0.224300
     20 C27         56.4880    -7.2380    74.8780 cy         1 SWS       0.224300
     21 N11         65.2730    -5.4550    77.9140 ns         1 SWS      -0.500900
     22 N16         61.7590    -7.7850    75.4710 nb         1 SWS      -0.681000
     23 N20         58.7900    -5.4100    77.1600 nb         1 SWS      -0.730000
     24 N24         57.1730    -6.5350    75.9930 nn         1 SWS      -0.785300
     25 O04         70.7160    -1.7320    78.5950 oh         1 SWS      -0.660000
     26 O13         65.7580    -7.1590    76.5000 o          1 SWS      -0.599100
     27 H1          68.6390    -4.9580    80.3330 hc         1 SWS       0.048450
     28 H2          67.9780    -3.5450    81.1470 hc         1 SWS       0.048450
     29 H4          60.2930    -4.4270    78.1950 h4         1 SWS       0.017100
     30 H5          54.3880    -6.3880    74.8530 hc         1 SWS       0.063200
     31 H6          54.7130    -7.4710    76.2310 hc         1 SWS       0.063200
     32 H7          70.9180    -4.4750    80.5190 hc         1 SWS       0.041867
     33 H8          71.3760    -4.3080    78.8110 hc         1 SWS       0.041867
     34 H9          72.2050    -3.3570    80.0480 hc         1 SWS       0.041867
     35 H10         69.8900    -2.4360    81.7570 hc         1 SWS       0.041867
     36 H11         71.1000    -1.3250    81.1100 hc         1 SWS       0.041867
     37 H12         69.3760    -1.0070    80.8370 hc         1 SWS       0.041867
     38 H13         68.1490    -2.2100    79.0390 hc         1 SWS       0.038700
     39 H14         69.3750    -4.7270    77.7590 hc         1 SWS       0.048450
     40 H15         69.1980    -3.1640    76.9720 hc         1 SWS       0.048450
     41 H16         66.7230    -3.2950    77.1490 hc         1 SWS       0.045450
     42 H17         67.3650    -4.7070    76.3160 hc         1 SWS       0.045450
     43 H18         67.2170    -6.0670    78.4130 h1         1 SWS       0.079700
     44 H19         65.9950    -3.5320    79.6700 hc         1 SWS       0.045450
     45 H20         66.1680    -5.0970    80.4580 hc         1 SWS       0.045450
     46 H21         59.1830    -7.9720    74.9990 ha         1 SWS       0.141000
     47 H22         62.7050    -4.9770    78.0110 ha         1 SWS       0.116000
     48 H23         56.0400    -4.6880    75.7020 h1         1 SWS       0.058200
     49 H24         55.7460    -5.4780    77.2960 h1         1 SWS       0.058200
     50 H25         56.5940    -8.3290    74.8540 h1         1 SWS       0.058200
     51 H26         56.6730    -6.8110    73.8840 h1         1 SWS       0.058200
     52 H27         64.5190    -4.9040    78.3020 hn         1 SWS       0.308500
     53 H28         70.0440    -1.0310    78.4590 ho         1 SWS       0.438000
     54 C12         64.9190    -6.4390    77.0190 c          1 SWS       0.621700
     55 H3          63.7780    -8.2290    75.3330 h4         1 SWS       0.038100
@<TRIPOS>BOND
     1     1    10 1   
     2     1    14 1   
     3     1    27 1   
     4     1    28 1   
     5     2    15 ar  
     6     2    22 ar  
     7     2    55 1   
     8     3     5 ar  
     9     3    16 ar  
    10     3    22 ar  
    11     4     5 ar  
    12     4    23 ar  
    13     4    29 1   
    14     5    18 ar  
    15     6    19 1   
    16     6    20 1   
    17     6    30 1   
    18     6    31 1   
    19     7     8 1   
    20     7    32 1   
    21     7    33 1   
    22     7    34 1   
    23     8     9 1   
    24     8    10 1   
    25     8    25 1   
    26     9    35 1   
    27     9    36 1   
    28     9    37 1   
    29    10    11 1   
    30    10    38 1   
    31    11    12 1   
    32    11    39 1   
    33    11    40 1   
    34    12    13 1   
    35    12    41 1   
    36    12    42 1   
    37    13    14 1   
    38    13    21 1   
    39    13    43 1   
    40    14    44 1   
    41    14    45 1   
    42    15    18 ar  
    43    15    54 1   
    44    16    17 ar  
    45    16    46 1   
    46    17    23 ar  
    47    17    24 1   
    48    18    47 1   
    49    19    24 1   
    50    19    48 1   
    51    19    49 1   
    52    20    24 1   
    53    20    50 1   
    54    20    51 1   
    55    21    52 1   
    56    21    54 1   
    57    25    53 1   
    58    26    54 2   
@<TRIPOS>SUBSTRUCTURE
     1 SWS         1 TEMP              0 ****  ****    0 ROOT
