@<TRIPOS>MOLECULE
SWS
   55    58     1     0     0
SMALL
bcc


@<TRIPOS>ATOM
      1 C10         67.9450    -3.8350    80.0940 c6         1 SWS      -0.066400
      2 C15         63.0940    -7.1960    75.6330 ca         1 SWS       0.486200
      3 C17         60.8560    -6.8810    75.9600 ca         1 SWS       0.487600
      4 C21         59.9910    -5.7310    77.9040 ca         1 SWS       0.492200
      5 C22         61.1060    -6.1920    77.1740 ca         1 SWS      -0.350600
      6 C26         55.2730    -6.4720    75.3250 cy         1 SWS      -0.117400
      7 C01         71.0520    -3.8280    79.9350 c3         1 SWS      -0.100600
      8 C02         70.1650    -2.6720    79.4890 c3         1 SWS       0.165800
      9 C03         70.0350    -1.6560    80.6250 c3         1 SWS      -0.100600
     10 C05         68.7710    -3.1380    79.0090 c6         1 SWS      -0.087700
     11 C06         68.8240    -4.0310    77.7670 c6         1 SWS      -0.066400
     12 C07         67.4240    -4.3650    77.2630 c6         1 SWS      -0.091900
     13 C08         66.5910    -5.0480    78.3480 c6         1 SWS       0.110700
     14 C09         66.5440    -4.1860    79.6040 c6         1 SWS      -0.091900
     15 C14         63.4510    -6.4990    76.8170 ca         1 SWS      -0.306900
     16 C18         59.5330    -7.0510    75.5520 ca         1 SWS      -0.390600
     17 C19         58.5150    -6.5460    76.3580 ca         1 SWS       0.704200
     18 C23         62.4310    -6.0030    77.5890 ca         1 SWS      -0.011000
     19 C25         56.0490    -6.0170    76.5790 cy         1 SWS       0.224300
     20 C27         56.5960    -7.0500    74.7810 cy         1 SWS       0.224300
     21 N11         65.2380    -5.3230    77.9020 ns         1 SWS      -0.567900
     22 N16         61.8760    -7.3740    75.2060 nb         1 SWS      -0.681000
     23 N20         58.7560    -5.8940    77.5260 nb         1 SWS      -0.730000
     24 N24         57.2210    -6.6860    76.0390 nn         1 SWS      -0.785300
     25 O04         70.8550    -2.0590    78.4030 oh         1 SWS      -0.597800
     26 O13         65.6860    -7.2640    76.8280 o          1 SWS      -0.599100
     27 H1          68.4540    -4.7520    80.4090 hc         1 SWS       0.048450
     28 H2          67.8590    -3.2070    80.9820 hc         1 SWS       0.048450
     29 H4          60.1550    -5.2020    78.8390 h4         1 SWS       0.017100
     30 H5          54.8450    -5.6680    74.7320 hc         1 SWS       0.063200
     31 H6          54.5080    -7.2200    75.5180 hc         1 SWS       0.063200
     32 H7          70.6390    -4.3260    80.8120 hc         1 SWS       0.041867
     33 H8          71.1750    -4.5790    79.1530 hc         1 SWS       0.041867
     34 H9          72.0440    -3.4620    80.2060 hc         1 SWS       0.041867
     35 H10         69.6170    -2.0980    81.5290 hc         1 SWS       0.041867
     36 H11         71.0160    -1.2510    80.8830 hc         1 SWS       0.041867
     37 H12         69.3890    -0.8230    80.3360 hc         1 SWS       0.041867
     38 H13         68.2250    -2.2240    78.7280 hc         1 SWS       0.038700
     39 H14         69.3490    -4.9630    78.0020 hc         1 SWS       0.048450
     40 H15         69.3880    -3.5470    76.9690 hc         1 SWS       0.048450
     41 H16         66.9120    -3.4480    76.9510 hc         1 SWS       0.045450
     42 H17         67.4840    -5.0100    76.3840 hc         1 SWS       0.045450
     43 H18         67.0570    -6.0050    78.5990 h1         1 SWS       0.079700
     44 H19         65.9940    -3.2630    79.3870 hc         1 SWS       0.045450
     45 H20         65.9920    -4.7070    80.3900 hc         1 SWS       0.045450
     46 H21         59.3140    -7.5700    74.6280 ha         1 SWS       0.159000
     47 H22         62.6200    -5.4880    78.5250 ha         1 SWS       0.134000
     48 H23         56.1670    -4.9350    76.6790 h1         1 SWS       0.058200
     49 H24         55.7010    -6.4200    77.5320 h1         1 SWS       0.058200
     50 H25         56.6030    -8.1210    74.5670 h1         1 SWS       0.058200
     51 H26         57.0100    -6.5190    73.9180 h1         1 SWS       0.058200
     52 H27         64.5730    -4.5700    77.9920 hn         1 SWS       0.308500
     53 H28         70.3220    -1.3210    78.0880 ho         1 SWS       0.399000
     54 C12         64.8920    -6.3990    77.1770 c          1 SWS       0.688700
     55 H3          63.8850    -7.6080    75.0150 h4         1 SWS       0.038100
@<TRIPOS>BOND
     1     1    10 1   
     2     1    14 1   
     3     1    27 1   
     4     1    28 1   
     5     2    15 ar  
     6     2    22 ar  
     7     2    55 1   
     8     3     5 ar  
     9     3    16 ar  
    10     3    22 ar  
    11     4     5 ar  
    12     4    23 ar  
    13     4    29 1   
    14     5    18 ar  
    15     6    19 1   
    16     6    20 1   
    17     6    30 1   
    18     6    31 1   
    19     7     8 1   
    20     7    32 1   
    21     7    33 1   
    22     7    34 1   
    23     8     9 1   
    24     8    10 1   
    25     8    25 1   
    26     9    35 1   
    27     9    36 1   
    28     9    37 1   
    29    10    11 1   
    30    10    38 1   
    31    11    12 1   
    32    11    39 1   
    33    11    40 1   
    34    12    13 1   
    35    12    41 1   
    36    12    42 1   
    37    13    14 1   
    38    13    21 1   
    39    13    43 1   
    40    14    44 1   
    41    14    45 1   
    42    15    18 ar  
    43    15    54 1   
    44    16    17 ar  
    45    16    46 1   
    46    17    23 ar  
    47    17    24 1   
    48    18    47 1   
    49    19    24 1   
    50    19    48 1   
    51    19    49 1   
    52    20    24 1   
    53    20    50 1   
    54    20    51 1   
    55    21    52 1   
    56    21    54 1   
    57    25    53 1   
    58    26    54 2   
@<TRIPOS>SUBSTRUCTURE
     1 SWS         1 TEMP              0 ****  ****    0 ROOT
