@<TRIPOS>MOLECULE
SWT
   28    30     1     0     0
SMALL
No Charge or Current Charge


@<TRIPOS>ATOM
      1 C17         -5.7120     5.8430     6.4530 cc         1 SWT      -0.060000
      2 C02         -0.0680     5.6650     4.8140 ca         1 SWT      -0.044300
      3 C03         -0.9950     4.8940     4.0880 ca         1 SWT      -0.123000
      4 C04         -1.8910     4.0420     4.7570 ca         1 SWT      -0.060000
      5 C05         -1.8690     3.9620     6.1620 ca         1 SWT      -0.168000
      6 C06         -0.9420     4.7270     6.8920 ca         1 SWT      -0.060000
      7 C07         -0.0470     5.5770     6.2190 ca         1 SWT      -0.123000
      8 C09         -4.4090     3.8190     6.4750 cd         1 SWT       0.358300
      9 C12         -7.5170     3.3620     4.5260 c          1 SWT       0.542800
     10 C16         -6.6660     5.1460     5.6420 cc         1 SWT      -0.085000
     11 C18         -4.5820     5.1850     6.8830 cd         1 SWT      -0.106000
     12 N10         -5.3000     3.1570     5.7460 nc         1 SWT      -0.367800
     13 N11         -6.4450     3.8080     5.3040 n          1 SWT       0.079000
     14 N14         -8.2860     4.4890     4.4700 ns         1 SWT      -0.369400
     15 N15         -7.8070     5.5860     5.1310 nd         1 SWT      -0.179600
     16 O13         -7.7280     2.2660     4.0230 o          1 SWT      -0.512000
     17 S08         -3.0110     2.8860     7.0290 ss         1 SWT      -0.094300
     18 H1          -5.8950     6.8790     6.7200 ha         1 SWT       0.149000
     19 H2           0.4630     7.5870     3.9620 hc         1 SWT       0.048033
     20 H3           1.8380     6.7000     4.6430 hc         1 SWT       0.048033
     21 H4           1.1480     6.2030     3.0930 hc         1 SWT       0.048033
     22 H5          -1.0220     4.9530     3.0020 ha         1 SWT       0.118000
     23 H6          -2.6000     3.4480     4.1840 ha         1 SWT       0.128500
     24 H7          -0.9170     4.6660     7.9780 ha         1 SWT       0.128500
     25 H8           0.6630     6.1690     6.7930 ha         1 SWT       0.118000
     26 H9          -3.8440     5.6800     7.5030 ha         1 SWT       0.144000
     27 H10         -9.1670     4.4890     3.9580 hn         1 SWT       0.495000
     28 C01          0.8980     6.5890     4.0890 c3         1 SWT      -0.053800
@<TRIPOS>BOND
     1     1    10 1   
     2     1    11 2   
     3     1    18 1   
     4     2     3 ar  
     5     2     7 ar  
     6     2    28 1   
     7     3     4 ar  
     8     3    22 1   
     9     4     5 ar  
    10     4    23 1   
    11     5     6 ar  
    12     5    17 1   
    13     6     7 ar  
    14     6    24 1   
    15     7    25 1   
    16     8    11 1   
    17     8    12 2   
    18     8    17 1   
    19     9    13 1   
    20     9    14 1   
    21     9    16 2   
    22    10    13 1   
    23    10    15 2   
    24    11    26 1   
    25    12    13 1   
    26    14    15 1   
    27    14    27 1   
    28    19    28 1   
    29    20    28 1   
    30    21    28 1   
@<TRIPOS>SUBSTRUCTURE
     1 SWT         1 TEMP              0 ****  ****    0 ROOT
