@<TRIPOS>MOLECULE
SWT
   28    30     1     0     0
SMALL
bcc


@<TRIPOS>ATOM
      1 C17         -5.7740     5.9180     5.7210 cc         1 SWT      -0.078000
      2 C02          0.2360     5.7250     5.0050 ca         1 SWT      -0.044300
      3 C03         -0.6300     5.1410     4.0800 ca         1 SWT      -0.141000
      4 C04         -1.6540     4.3040     4.4870 ca         1 SWT      -0.078000
      5 C05         -1.8450     4.0570     5.8440 ca         1 SWT      -0.041100
      6 C06         -0.9940     4.6290     6.7800 ca         1 SWT      -0.078000
      7 C07          0.0420     5.4500     6.3560 ca         1 SWT      -0.141000
      8 C09         -4.5820     3.8350     5.9780 cd         1 SWT       0.423600
      9 C12         -7.9740     3.1350     5.2810 c          1 SWT       0.685300
     10 C16         -6.9220     5.1110     5.4820 cc         1 SWT      -0.034300
     11 C18         -4.6140     5.2800     5.9710 cd         1 SWT      -0.189300
     12 N10         -5.6110     3.0900     5.7590 nc         1 SWT      -0.367800
     13 N11         -6.7500     3.7490     5.5330 n          1 SWT       0.028300
     14 N14         -8.7720     4.2190     5.1030 ns         1 SWT      -0.322900
     15 N15         -8.1520     5.4200     5.2200 nd         1 SWT      -0.179600
     16 O13         -8.2240     1.9490     5.2390 o          1 SWT      -0.587500
     17 S08         -3.1160     2.9490     6.3880 ss         1 SWT      -0.221200
     18 H1          -5.8580     6.9950     5.7090 ha         1 SWT       0.167000
     19 H2           0.9370     7.6250     4.3010 hc         1 SWT       0.048033
     20 H3           2.0900     6.7740     5.3220 hc         1 SWT       0.048033
     21 H4           1.8250     6.2560     3.6550 hc         1 SWT       0.048033
     22 H5          -0.4930     5.3330     3.0220 ha         1 SWT       0.136000
     23 H6          -2.3040     3.8450     3.7530 ha         1 SWT       0.146500
     24 H7          -1.1380     4.4400     7.8350 ha         1 SWT       0.146500
     25 H8           0.7050     5.8870     7.0930 ha         1 SWT       0.136000
     26 H9          -3.7110     5.8350     6.1750 ha         1 SWT       0.162000
     27 H10         -9.7580     4.1840     4.8960 hn         1 SWT       0.381500
     28 C01          1.3340     6.6390     4.5500 c3         1 SWT      -0.053800
@<TRIPOS>BOND
     1     1    10 1   
     2     1    11 2   
     3     1    18 1   
     4     2     3 ar  
     5     2     7 ar  
     6     2    28 1   
     7     3     4 ar  
     8     3    22 1   
     9     4     5 ar  
    10     4    23 1   
    11     5     6 ar  
    12     5    17 1   
    13     6     7 ar  
    14     6    24 1   
    15     7    25 1   
    16     8    11 1   
    17     8    12 2   
    18     8    17 1   
    19     9    13 1   
    20     9    14 1   
    21     9    16 2   
    22    10    13 1   
    23    10    15 2   
    24    11    26 1   
    25    12    13 1   
    26    14    15 1   
    27    14    27 1   
    28    19    28 1   
    29    20    28 1   
    30    21    28 1   
@<TRIPOS>SUBSTRUCTURE
     1 SWT         1 TEMP              0 ****  ****    0 ROOT
