@<TRIPOS>MOLECULE
SWU
   28    29     1     0     0
SMALL
No Charge or Current Charge


@<TRIPOS>ATOM
      1 C1          -4.6370     1.6360    14.4990 c3         1 SWU      -0.252100
      2 C2          -4.5970     3.1070    14.1080 ca         1 SWU      -0.029300
      3 C3          -5.6620     3.6830    13.3960 ca         1 SWU      -0.122000
      4 C7          -3.4910     3.9040    14.4480 ca         1 SWU      -0.108000
      5 C8          -4.4730     7.2680    12.9930 cc         1 SWU       0.042600
      6 C9          -3.3310     7.9330    13.3900 cd         1 SWU      -0.326200
      7 C10         -2.2190     7.3200    14.1340 c          1 SWU       0.670300
      8 C11         -5.5770     7.9570    12.2320 c3         1 SWU      -0.064900
      9 C4          -5.6250     5.0400    13.0310 ca         1 SWU      -0.053000
     10 C5          -4.5170     5.8490    13.3710 ca         1 SWU      -0.142800
     11 C6          -3.4530     5.2590    14.0840 ca         1 SWU       0.170100
     12 O4          -1.2280     7.9550    14.4620 o          1 SWU      -0.484000
     13 O3          -2.3570     5.9990    14.4370 os         1 SWU      -0.337200
     14 S1          -5.3760     1.3270    16.1050 s6         1 SWU       1.200100
     15 O1          -6.8110     1.5990    16.0830 o          1 SWU      -0.542500
     16 O2          -4.5290     1.8410    17.1780 o          1 SWU      -0.542500
     17 N1          -5.2540    -0.2960    16.2080 n8         1 SWU      -1.054100
     18 H1          -5.2270     1.0590    13.7800 h1         1 SWU       0.105200
     19 H2          -3.6270     1.2180    14.5470 h1         1 SWU       0.105200
     20 H3          -6.5250     3.0790    13.1230 ha         1 SWU       0.130000
     21 H4          -2.6560     3.4760    14.9980 ha         1 SWU       0.145000
     22 H5          -3.1800     8.9820    13.1710 ha         1 SWU       0.213000
     23 H6          -5.7340     7.4830    11.2560 hc         1 SWU       0.056367
     24 H7          -6.5210     7.9160    12.7890 hc         1 SWU       0.056367
     25 H8          -5.3440     9.0130    12.0540 hc         1 SWU       0.056367
     26 H9          -6.4680     5.4520    12.4810 ha         1 SWU       0.122000
     27 H10         -4.8020    -0.3870    17.1160 hn         1 SWU       0.493500
     28 H11         -6.2170    -0.5370    16.4330 hn         1 SWU       0.493500
@<TRIPOS>BOND
     1     1     2 1   
     2     1    14 1   
     3     1    18 1   
     4     1    19 1   
     5     2     3 ar  
     6     2     4 ar  
     7     3     9 ar  
     8     3    20 1   
     9     4    11 ar  
    10     4    21 1   
    11     5     6 2   
    12     5     8 1   
    13     5    10 1   
    14     6     7 1   
    15     6    22 1   
    16     7    12 2   
    17     7    13 1   
    18     8    23 1   
    19     8    24 1   
    20     8    25 1   
    21     9    10 ar  
    22     9    26 1   
    23    10    11 ar  
    24    11    13 1   
    25    14    15 2   
    26    14    16 2   
    27    14    17 1   
    28    17    27 1   
    29    17    28 1   
@<TRIPOS>SUBSTRUCTURE
     1 SWU         1 TEMP              0 ****  ****    0 ROOT
