@<TRIPOS>MOLECULE
SWU
   28    29     1     0     0
SMALL
abcg2


@<TRIPOS>ATOM
      1 C1          -4.5970     1.6580    14.4810 c3         1 SWU      -0.252100
      2 C2          -4.5630     3.0990    14.0710 ca         1 SWU      -0.029300
      3 C3          -5.6410     3.6640    13.3770 ca         1 SWU      -0.122000
      4 C7          -3.4730     3.8900    14.4070 ca         1 SWU      -0.108000
      5 C8          -4.4530     7.2300    13.0440 cc         1 SWU       0.042600
      6 C9          -3.3410     7.9110    13.4110 cd         1 SWU      -0.326200
      7 C10         -2.2390     7.2920    14.1040 c          1 SWU       0.670300
      8 C11         -5.5760     7.9050    12.3250 c3         1 SWU      -0.064900
      9 C4          -5.6280     5.0020    13.0340 ca         1 SWU      -0.053000
     10 C5          -4.5380     5.8210    13.3670 ca         1 SWU      -0.142800
     11 C6          -3.4670     5.2310    14.0510 ca         1 SWU       0.170100
     12 O4          -1.2100     7.8390    14.4490 o          1 SWU      -0.484000
     13 O3          -2.3630     5.9540    14.4020 os         1 SWU      -0.337200
     14 S1          -5.4480     1.4540    16.0560 s6         1 SWU       1.200100
     15 O1          -6.8490     1.7580    15.8610 o          1 SWU      -0.542500
     16 O2          -4.7010     2.1830    17.0570 o          1 SWU      -0.542500
     17 N1          -5.3140    -0.1540    16.3380 n8         1 SWU      -1.054100
     18 H1          -5.1430     1.0360    13.7730 h1         1 SWU       0.105200
     19 H2          -3.6000     1.2470    14.6340 h1         1 SWU       0.105200
     20 H3          -6.4890     3.0460    13.1130 ha         1 SWU       0.130000
     21 H4          -2.6270     3.4790    14.9410 ha         1 SWU       0.145000
     22 H5          -3.2290     8.9640    13.1940 ha         1 SWU       0.213000
     23 H6          -5.7560     7.4280    11.3590 hc         1 SWU       0.056367
     24 H7          -6.5020     7.8230    12.8990 hc         1 SWU       0.056367
     25 H8          -5.3550     8.9580    12.1620 hc         1 SWU       0.056367
     26 H9          -6.4680     5.4240    12.5000 ha         1 SWU       0.122000
     27 H10         -4.6600    -0.3860    17.0760 hn         1 SWU       0.493500
     28 H11         -6.2080    -0.6210    16.4220 hn         1 SWU       0.493500
@<TRIPOS>BOND
     1     1     2 1   
     2     1    14 1   
     3     1    18 1   
     4     1    19 1   
     5     2     3 ar  
     6     2     4 ar  
     7     3     9 ar  
     8     3    20 1   
     9     4    11 ar  
    10     4    21 1   
    11     5     6 2   
    12     5     8 1   
    13     5    10 1   
    14     6     7 1   
    15     6    22 1   
    16     7    12 2   
    17     7    13 1   
    18     8    23 1   
    19     8    24 1   
    20     8    25 1   
    21     9    10 ar  
    22     9    26 1   
    23    10    11 ar  
    24    11    13 1   
    25    14    15 2   
    26    14    16 2   
    27    14    17 1   
    28    17    27 1   
    29    17    28 1   
@<TRIPOS>SUBSTRUCTURE
     1 SWU         1 TEMP              0 ****  ****    0 ROOT
