@<TRIPOS>MOLECULE
SWV
   39    41     1     0     0
SMALL
bcc


@<TRIPOS>ATOM
      1 N1          24.3220   -36.5530     3.7150 nb         1 SWV      -0.645000
      2 N3          23.3450   -37.4000     6.0420 ns         1 SWV      -0.455100
      3 C4          26.0250   -36.5550     2.0820 ca         1 SWV       0.309900
      4 C5          26.3320   -37.7810     3.9570 ca         1 SWV       0.348900
      5 C6          22.5230   -37.7360     7.1130 ca         1 SWV       0.058600
      6 C7          21.2460   -37.1660     7.1410 ca         1 SWV      -0.127000
      7 C8          20.3510   -37.4770     8.1480 ca         1 SWV      -0.117000
      8 C10         21.9660   -38.9260     9.1100 ca         1 SWV      -0.280500
      9 C13         25.0260   -42.4800     7.2730 ca         1 SWV      -0.128000
     10 C15         23.1420   -41.8800     5.8990 ca         1 SWV      -0.163000
     11 C17         22.8990   -38.6090     8.1310 ca         1 SWV      -0.064000
     12 O1          25.2450   -38.6140     6.4290 o          1 SWV      -0.568100
     13 C2          25.0890   -37.3710     4.4220 ca         1 SWV       0.228500
     14 C3          24.7820   -36.1400     2.5480 ca         1 SWV       0.289900
     15 N2          26.7960   -37.3710     2.7840 nb         1 SWV      -0.632000
     16 C9          20.6940   -38.3810     9.1430 ca         1 SWV      -0.058000
     17 S1          22.4000   -40.1740    10.2870 sy         1 SWV       1.287200
     18 N4          22.1790   -41.6190     9.4800 nu         1 SWV      -0.667500
     19 C11         22.9450   -41.8560     8.3160 ca         1 SWV       0.052600
     20 C12         24.2670   -42.2790     8.4150 ca         1 SWV      -0.068000
     21 C14         24.4640   -42.2850     6.0190 ca         1 SWV      -0.093000
     22 C16         22.4100   -41.6600     7.0470 ca         1 SWV       0.109900
     23 F1          21.1400   -41.2490     6.9450 f          1 SWV      -0.144900
     24 O2          21.4240   -40.1770    11.3590 o          1 SWV      -0.597300
     25 O3          23.8170   -40.0610    10.5710 o          1 SWV      -0.597300
     26 H1          22.9470   -36.7780     5.3470 hn         1 SWV       0.348500
     27 H2          26.3940   -36.2170     1.1210 h4         1 SWV       0.037100
     28 H3          26.9570   -38.4500     4.5350 h4         1 SWV       0.058100
     29 H4          20.9520   -36.4740     6.3620 ha         1 SWV       0.134000
     30 H5          19.3730   -37.0170     8.1520 ha         1 SWV       0.139000
     31 H7          22.6880   -41.7210     4.9300 ha         1 SWV       0.149000
     32 H8          23.8900   -39.0310     8.1580 ha         1 SWV       0.186000
     33 H9          24.1590   -35.4720     1.9670 h4         1 SWV       0.037100
     34 H10         19.9870   -38.6400     9.9180 ha         1 SWV       0.160000
     35 H11         21.1930   -41.8530     9.4100 hn         1 SWV       0.438800
     36 H12         24.6910   -42.4510     9.3940 ha         1 SWV       0.163000
     37 H13         25.0520   -42.4490     5.1260 ha         1 SWV       0.138000
     38 C1          24.5780   -37.8650     5.7410 c          1 SWV       0.586600
     39 H6          26.0560   -42.7980     7.3630 ha         1 SWV       0.145000
@<TRIPOS>BOND
     1     1    13 ar  
     2     1    14 ar  
     3     2     5 1   
     4     2    26 1   
     5     2    38 1   
     6     3    14 ar  
     7     3    15 ar  
     8     3    27 1   
     9     4    13 ar  
    10     4    15 ar  
    11     4    28 1   
    12     5     6 ar  
    13     5    11 ar  
    14     6     7 ar  
    15     6    29 1   
    16     7    16 ar  
    17     7    30 1   
    18     8    11 ar  
    19     8    16 ar  
    20     8    17 1   
    21     9    20 ar  
    22     9    21 ar  
    23     9    39 1   
    24    10    21 ar  
    25    10    22 ar  
    26    10    31 1   
    27    11    32 1   
    28    12    38 2   
    29    13    38 1   
    30    14    33 1   
    31    16    34 1   
    32    17    18 1   
    33    17    24 2   
    34    17    25 2   
    35    18    19 1   
    36    18    35 1   
    37    19    20 ar  
    38    19    22 ar  
    39    20    36 1   
    40    21    37 1   
    41    22    23 1   
@<TRIPOS>SUBSTRUCTURE
     1 SWV         1 TEMP              0 ****  ****    0 ROOT
