@<TRIPOS>MOLECULE
SWV
   39    41     1     0     0
SMALL
No Charge or Current Charge


@<TRIPOS>ATOM
      1 N1          24.6960   -35.8640     3.7140 nb         1 SWV      -0.645000
      2 N3          23.5560   -37.2500     5.8430 ns         1 SWV      -0.129000
      3 C4          26.6410   -35.5080     2.2890 ca         1 SWV       0.309900
      4 C5          26.7890   -37.0950     3.9580 ca         1 SWV       0.348900
      5 C6          22.6660   -37.7040     6.8570 ca         1 SWV      -0.034000
      6 C7          21.3100   -37.3440     6.7470 ca         1 SWV      -0.109000
      7 C8          20.3770   -37.7660     7.7090 ca         1 SWV      -0.099000
      8 C10         22.1470   -38.9080     8.9300 ca         1 SWV      -0.280500
      9 C13         24.2580   -42.4640     6.7060 ca         1 SWV      -0.110000
     10 C15         22.1500   -43.6690     6.7740 ca         1 SWV      -0.145000
     11 C17         23.0830   -38.4800     7.9620 ca         1 SWV      -0.046000
     12 O1          25.5020   -38.4570     6.1250 o          1 SWV      -0.568100
     13 C2          25.4530   -36.8150     4.3600 ca         1 SWV       0.228500
     14 C3          25.3070   -35.2200     2.6800 ca         1 SWV       0.289900
     15 N2          27.3980   -36.4480     2.9220 nb         1 SWV      -0.632000
     16 C9          20.7900   -38.5520     8.7960 ca         1 SWV      -0.040000
     17 S1          22.6780   -39.9330    10.3130 sy         1 SWV       1.145600
     18 N4          22.3930   -41.5110     9.8100 nu         1 SWV      -0.861100
     19 C11         22.7310   -42.1240     8.5910 ca         1 SWV       0.191000
     20 C12         23.9490   -41.8460     7.9310 ca         1 SWV      -0.050000
     21 C14         23.3600   -43.3740     6.1240 ca         1 SWV      -0.075000
     22 C16         21.8400   -43.0510     7.9970 ca         1 SWV       0.145000
     23 F1          20.6640   -43.3480     8.6010 f          1 SWV      -0.180000
     24 O2          21.7440   -39.7850    11.4310 o          1 SWV      -0.526500
     25 O3          24.1310   -39.8570    10.4890 o          1 SWV      -0.526500
     26 H1          23.1640   -36.5410     5.2340 hn         1 SWV       0.182000
     27 H2          27.1050   -34.9790     1.4590 h4         1 SWV       0.037100
     28 H3          27.3860   -37.8480     4.4710 h4         1 SWV       0.058100
     29 H4          20.9730   -36.7400     5.9070 ha         1 SWV       0.116000
     30 H5          19.3300   -37.4880     7.6080 ha         1 SWV       0.121000
     31 H7          21.4510   -44.3750     6.3310 ha         1 SWV       0.131000
     32 H8          24.1280   -38.7500     8.0850 ha         1 SWV       0.168000
     33 H9          24.7240   -34.4640     2.1560 h4         1 SWV       0.037100
     34 H10         20.0540   -38.8790     9.5300 ha         1 SWV       0.142000
     35 H11         21.4820   -41.7410    10.1860 hn         1 SWV       0.494000
     36 H12         24.6680   -41.1600     8.3660 ha         1 SWV       0.145000
     37 H13         23.6020   -43.8500     5.1770 ha         1 SWV       0.120000
     38 C1          24.8670   -37.5920     5.5260 c          1 SWV       0.519600
     39 H6          25.1990   -42.2370     6.2080 ha         1 SWV       0.127000
@<TRIPOS>BOND
     1     1    13 ar  
     2     1    14 ar  
     3     2     5 1   
     4     2    26 1   
     5     2    38 1   
     6     3    14 ar  
     7     3    15 ar  
     8     3    27 1   
     9     4    13 ar  
    10     4    15 ar  
    11     4    28 1   
    12     5     6 ar  
    13     5    11 ar  
    14     6     7 ar  
    15     6    29 1   
    16     7    16 ar  
    17     7    30 1   
    18     8    11 ar  
    19     8    16 ar  
    20     8    17 1   
    21     9    20 ar  
    22     9    21 ar  
    23     9    39 1   
    24    10    21 ar  
    25    10    22 ar  
    26    10    31 1   
    27    11    32 1   
    28    12    38 2   
    29    13    38 1   
    30    14    33 1   
    31    16    34 1   
    32    17    18 1   
    33    17    24 2   
    34    17    25 2   
    35    18    19 1   
    36    18    35 1   
    37    19    20 ar  
    38    19    22 ar  
    39    20    36 1   
    40    21    37 1   
    41    22    23 1   
@<TRIPOS>SUBSTRUCTURE
     1 SWV         1 TEMP              0 ****  ****    0 ROOT
