@<TRIPOS>MOLECULE
SWW
   20    19     1     0     0
SMALL
No Charge or Current Charge


@<TRIPOS>ATOM
      1 N          -16.7660    13.2240    -1.8730 n8         1 SWW      -0.979200
      2 CA         -16.6000    13.5850    -0.4130 c3         1 SWW       0.019500
      3 C          -15.4310    12.8690     0.3710 c          1 SWW       0.725000
      4 O          -15.7230    12.1280     1.3010 o          1 SWW      -0.727000
      5 C05        -16.4800    15.1240    -0.2400 c3         1 SWW       0.079600
      6 C07        -19.2920    15.6140     0.0310 c3         1 SWW       0.077600
      7 C08        -20.5900    16.3730    -0.3420 c3         1 SWW       0.173600
      8 O09        -21.1080    15.9240    -1.6020 oh         1 SWW      -0.627000
      9 S06        -17.8630    16.0450    -1.0870 ss         1 SWW      -0.544000
     10 O1         -14.2800    13.0370    -0.0140 o          1 SWW      -0.727000
     11 H1         -17.4050    13.9170    -2.2830 hn         1 SWW       0.382500
     12 H041       -15.8780    13.4030    -2.3570 hn         1 SWW       0.382500
     13 H031       -17.5280    13.2830     0.0910 h1         1 SWW       0.057700
     14 H052       -16.4770    15.3750     0.8290 h1         1 SWW       0.067700
     15 H051       -15.5240    15.4620    -0.6640 h1         1 SWW       0.067700
     16 H072       -19.0200    15.8720     1.0630 h1         1 SWW       0.066200
     17 H071       -19.4800    14.5330    -0.0070 h1         1 SWW       0.066200
     18 H081       -20.3820    17.4500    -0.3750 h1         1 SWW       0.004700
     19 H082       -21.3350    16.2020     0.4460 h1         1 SWW       0.004700
     20 H091       -21.8880    16.4850    -1.8030 ho         1 SWW       0.430000
@<TRIPOS>BOND
     1     1     2 1   
     2     1    11 1   
     3     1    12 1   
     4     2     3 1   
     5     2     5 1   
     6     2    13 1   
     7     3     4 1   
     8     3    10 1   
     9     5     9 1   
    10     5    14 1   
    11     5    15 1   
    12     6     7 1   
    13     6     9 1   
    14     6    16 1   
    15     6    17 1   
    16     7     8 1   
    17     7    18 1   
    18     7    19 1   
    19     8    20 1   
@<TRIPOS>SUBSTRUCTURE
     1 SWW         1 TEMP              0 ****  ****    0 ROOT
