@<TRIPOS>MOLECULE
SWW
   20    19     1     0     0
SMALL
abcg2


@<TRIPOS>ATOM
      1 N          -16.9480    13.8630    -2.0720 n8         1 SWW      -0.979200
      2 CA         -16.9550    13.7630    -0.6280 c3         1 SWW       0.019500
      3 C          -16.0180    12.6340    -0.1240 c          1 SWW       0.725000
      4 O          -16.1990    12.2700     1.0550 o          1 SWW      -0.727000
      5 C05        -16.5480    15.0540     0.0960 c3         1 SWW       0.079600
      6 C07        -19.1230    16.1820     0.4760 c3         1 SWW       0.077600
      7 C08        -20.2810    16.0320    -0.4880 c3         1 SWW       0.173600
      8 O09        -20.0970    14.8910    -1.2850 oh         1 SWW      -0.627000
      9 S06        -17.5270    16.5240    -0.3340 ss         1 SWW      -0.544000
     10 O1         -15.1510    12.2180    -0.9150 o          1 SWW      -0.727000
     11 H1         -17.4110    14.7220    -2.3450 hn         1 SWW       0.382500
     12 H041       -15.9900    13.9260    -2.3920 hn         1 SWW       0.382500
     13 H031       -17.9730    13.5190    -0.3080 h1         1 SWW       0.057700
     14 H052       -16.5820    14.9210     1.1780 h1         1 SWW       0.067700
     15 H051       -15.5200    15.3230    -0.1670 h1         1 SWW       0.067700
     16 H072       -19.3420    17.0100     1.1510 h1         1 SWW       0.066200
     17 H071       -19.0130    15.2870     1.0930 h1         1 SWW       0.066200
     18 H081       -20.3670    16.9440    -1.0920 h1         1 SWW       0.004700
     19 H082       -21.2010    15.9630     0.1100 h1         1 SWW       0.004700
     20 H091       -20.8050    14.8580    -1.9350 ho         1 SWW       0.430000
@<TRIPOS>BOND
     1     1     2 1   
     2     1    11 1   
     3     1    12 1   
     4     2     3 1   
     5     2     5 1   
     6     2    13 1   
     7     3     4 1   
     8     3    10 1   
     9     5     9 1   
    10     5    14 1   
    11     5    15 1   
    12     6     7 1   
    13     6     9 1   
    14     6    16 1   
    15     6    17 1   
    16     7     8 1   
    17     7    18 1   
    18     7    19 1   
    19     8    20 1   
@<TRIPOS>SUBSTRUCTURE
     1 SWW         1 TEMP              0 ****  ****    0 ROOT
