@<TRIPOS>MOLECULE
SWX
   24    25     1     0     0
SMALL
bcc


@<TRIPOS>ATOM
      1 C1           0.5920    -1.1910     0.0920 ca         1 SWX      -0.119000
      2 C2           0.5820     1.1530    -0.4170 ca         1 SWX      -0.119000
      3 C3           1.9750    -1.2000    -0.0020 ca         1 SWX      -0.105000
      4 C4           1.9650     1.1360    -0.5070 ca         1 SWX      -0.105000
      5 C5          -2.3820    -1.0480    -0.4730 ca         1 SWX       0.440700
      6 C6          -2.2920     1.0770     0.5240 ca         1 SWX       0.440700
      7 C7          -4.2580     0.0390     0.1450 ca         1 SWX       0.640900
      8 C8          -0.1240    -0.0110    -0.1150 cp         1 SWX      -0.028000
      9 C9          -1.5910     0.0050    -0.0210 cp         1 SWX      -0.264600
     10 C10          2.6800    -0.0410    -0.3060 ca         1 SWX      -0.079300
     11 C11          4.1800    -0.0450    -0.3590 c3         1 SWX       0.183700
     12 N12         -3.7040    -1.0380    -0.3900 nb         1 SWX      -0.697500
     13 N13         -3.6150     1.1010     0.6060 nb         1 SWX      -0.697500
     14 O14          4.6630     0.3110     0.9210 oh         1 SWX      -0.589800
     15 H1           0.0720    -2.1060     0.3470 ha         1 SWX       0.134000
     16 H2           0.0500     2.0770    -0.6080 ha         1 SWX       0.134000
     17 H3           2.5120    -2.1260     0.1680 ha         1 SWX       0.134500
     18 H4           2.4910     2.0500    -0.7550 ha         1 SWX       0.134500
     19 H6          -1.7640     1.9380     0.9200 h4         1 SWX       0.027600
     20 H7          -5.3400     0.0530     0.2130 h5         1 SWX       0.051100
     21 H8           4.5300    -1.0400    -0.6590 h1         1 SWX       0.025200
     22 H9           4.5200     0.6600    -1.1260 h1         1 SWX       0.025200
     23 H10          5.6250     0.3030     0.8840 ho         1 SWX       0.403000
     24 H5          -1.9290    -1.9220    -0.9300 h4         1 SWX       0.027600
@<TRIPOS>BOND
     1     1     3 ar  
     2     1     8 ar  
     3     1    15 1   
     4     2     4 ar  
     5     2     8 ar  
     6     2    16 1   
     7     3    10 ar  
     8     3    17 1   
     9     4    10 ar  
    10     4    18 1   
    11     5     9 ar  
    12     5    12 ar  
    13     5    24 1   
    14     6     9 ar  
    15     6    13 ar  
    16     6    19 1   
    17     7    12 ar  
    18     7    13 ar  
    19     7    20 1   
    20     8     9 1   
    21    10    11 1   
    22    11    14 1   
    23    11    21 1   
    24    11    22 1   
    25    14    23 1   
@<TRIPOS>SUBSTRUCTURE
     1 SWX         1 TEMP              0 ****  ****    0 ROOT
