@<TRIPOS>MOLECULE
SWX
   24    25     1     0     0
SMALL
No Charge or Current Charge


@<TRIPOS>ATOM
      1 C1           0.5990    -1.2020     0.0500 ca         1 SWX      -0.101000
      2 C2           0.5910     1.1900    -0.3510 ca         1 SWX      -0.101000
      3 C3           2.0030    -1.2110    -0.0290 ca         1 SWX      -0.087000
      4 C4           1.9950     1.1820    -0.4310 ca         1 SWX      -0.087000
      5 C5          -2.4190    -1.1250    -0.3630 ca         1 SWX       0.112400
      6 C6          -2.3620     1.1500     0.4010 ca         1 SWX       0.112400
      7 C7          -4.3420     0.0240     0.1300 ca         1 SWX       0.114900
      8 C8          -0.1380    -0.0010    -0.1090 cp         1 SWX      -0.028000
      9 C9          -1.6340     0.0080    -0.0240 cp         1 SWX      -0.134000
     10 C10          2.7100    -0.0190    -0.2710 ca         1 SWX      -0.079300
     11 C11          4.2300    -0.0290    -0.3630 c3         1 SWX       0.206900
     12 N12         -3.7660    -1.1210    -0.2890 nb         1 SWX      -0.171500
     13 N13         -3.7080     1.1620     0.4800 nb         1 SWX      -0.171500
     14 O14          4.8090     0.1880     0.9280 oh         1 SWX      -0.652000
     15 H1           0.0830    -2.1370     0.2510 ha         1 SWX       0.116000
     16 H2           0.0670     2.1320    -0.4910 ha         1 SWX       0.116000
     17 H3           2.5420    -2.1470     0.1020 ha         1 SWX       0.116500
     18 H4           2.5270     2.1120    -0.6200 ha         1 SWX       0.116500
     19 H6          -1.8580     2.0680     0.6970 h4         1 SWX       0.027600
     20 H7          -5.4290     0.0310     0.1920 h5         1 SWX       0.051100
     21 H8           4.5620    -0.9940    -0.7710 h1         1 SWX       0.025200
     22 H9           4.5570     0.7520    -1.0630 h1         1 SWX       0.025200
     23 H10          5.7840     0.1710     0.8070 ho         1 SWX       0.442000
     24 H5          -1.9640    -2.0490    -0.7130 h4         1 SWX       0.027600
@<TRIPOS>BOND
     1     1     3 ar  
     2     1     8 ar  
     3     1    15 1   
     4     2     4 ar  
     5     2     8 ar  
     6     2    16 1   
     7     3    10 ar  
     8     3    17 1   
     9     4    10 ar  
    10     4    18 1   
    11     5     9 ar  
    12     5    12 ar  
    13     5    24 1   
    14     6     9 ar  
    15     6    13 ar  
    16     6    19 1   
    17     7    12 ar  
    18     7    13 ar  
    19     7    20 1   
    20     8     9 1   
    21    10    11 1   
    22    11    14 1   
    23    11    21 1   
    24    11    22 1   
    25    14    23 1   
@<TRIPOS>SUBSTRUCTURE
     1 SWX         1 TEMP              0 ****  ****    0 ROOT
