@<TRIPOS>MOLECULE
SWY
   61    66     1     0     0
SMALL
bcc


@<TRIPOS>ATOM
      1 OAQ          4.1730    -0.8290     2.3790 o          1 SWY      -0.597000
      2 CAP          4.7390    -0.6260     1.3240 c          1 SWY       0.733600
      3 CAR          6.0540     0.0300     1.2510 ca         1 SWY      -0.164600
      4 CBC          6.6500     0.2790    -0.0010 ca         1 SWY       0.022000
      5 CAS          6.6980     0.4070     2.4070 ca         1 SWY      -0.034000
      6 CAT          7.9500     1.0390     2.3500 ca         1 SWY      -0.149000
      7 CAU          8.5440     1.2930     1.1410 ca         1 SWY      -0.073500
      8 CAV          7.9090     0.9190    -0.0640 ca         1 SWY      -0.062000
      9 CAW          8.4860     1.1640    -1.3300 ca         1 SWY      -0.073500
     10 CAX          7.8360     0.7870    -2.4770 ca         1 SWY      -0.149000
     11 CAY          6.5850     0.1540    -2.4090 ca         1 SWY      -0.034000
     12 CAZ          5.9980    -0.0990    -1.1900 ca         1 SWY      -0.164600
     13 CBA          4.6840    -0.7610    -1.1330 c          1 SWY       0.733600
     14 OBB          4.0760    -1.0810    -2.1330 o          1 SWY      -0.597000
     15 NAO          4.1540    -1.0130     0.1260 n          1 SWY      -0.508400
     16 CAN          2.8490    -1.6680     0.1880 c3         1 SWY       0.094000
     17 CAM          1.7020    -0.6630     0.1500 c3         1 SWY      -0.090400
     18 CAL          0.3710    -1.4000     0.1750 c3         1 SWY       0.009700
     19 SAK         -0.9570    -0.1600     0.0970 ss         1 SWY      -0.277400
     20 CAJ         -2.3370    -1.2100     0.0310 cc         1 SWY       0.492800
     21 NBD         -2.3610    -2.5130     0.0800 nd         1 SWY      -0.369000
     22 NBE         -3.6590    -2.8930     0.0180 nd         1 SWY      -0.343000
     23 CBF         -4.4000    -1.8260    -0.0720 cc         1 SWY       0.443000
     24 CBG         -5.8580    -1.8420    -0.1550 ca         1 SWY      -0.085500
     25 CBH         -6.5540    -2.9020     0.4240 ca         1 SWY      -0.219800
     26 CBI         -7.9340    -2.9310     0.3220 ca         1 SWY       0.394700
     27 NBJ         -8.6450    -1.9980    -0.3030 nb         1 SWY      -0.657000
     28 CBK         -7.9790    -0.9950    -0.8600 ca         1 SWY       0.394700
     29 CBL         -6.5990    -0.8670    -0.8190 ca         1 SWY      -0.219800
     30 NAI         -3.5990    -0.7180    -0.0710 na         1 SWY      -0.250800
     31 CAF         -3.9560     0.6560    -0.0820 ca         1 SWY      -0.066200
     32 CAE         -3.7160     1.4230    -1.2170 ca         1 SWY      -0.068000
     33 CAD         -4.0680     2.7560    -1.2310 ca         1 SWY      -0.189500
     34 CAC         -4.6740     3.3380    -0.1120 ca         1 SWY       0.160100
     35 OAB         -4.9900     4.6360    -0.2190 os         1 SWY      -0.311900
     36 CAA         -5.6210     5.2770     0.8740 c3         1 SWY       0.122700
     37 CAH         -4.9120     2.5630     1.0230 ca         1 SWY      -0.189500
     38 CAG         -4.5450     1.2250     1.0340 ca         1 SWY      -0.068000
     39 HAS          6.2400     0.2170     3.3680 ha         1 SWY       0.159000
     40 HAT          8.4430     1.3250     3.2690 ha         1 SWY       0.143000
     41 HAU          9.5080     1.7850     1.0980 ha         1 SWY       0.138000
     42 HAW          9.4480     1.6560    -1.3840 ha         1 SWY       0.138000
     43 HAX          8.2840     0.9760    -3.4420 ha         1 SWY       0.143000
     44 HAY          6.0830    -0.1340    -3.3220 ha         1 SWY       0.159000
     45 HAN1         2.7740    -2.3600    -0.6470 h1         1 SWY       0.073700
     46 HAN2         2.8080    -2.2580     1.1010 h1         1 SWY       0.073700
     47 HAM1         1.7750     0.0120     1.0050 hc         1 SWY       0.062700
     48 HAM2         1.7740    -0.0560    -0.7540 hc         1 SWY       0.062700
     49 HAL1         0.2760    -2.0680    -0.6800 h1         1 SWY       0.083700
     50 HAL2         0.2590    -1.9860     1.0870 h1         1 SWY       0.083700
     51 HBH         -6.0320    -3.6870     0.9530 ha         1 SWY       0.155500
     52 HBL         -6.1340    -0.0280    -1.3140 ha         1 SWY       0.155500
     53 HBI         -8.4890    -3.7460     0.7710 h4         1 SWY       0.021600
     54 HBK         -8.5680    -0.2460    -1.3740 h4         1 SWY       0.021600
     55 HAE         -3.2670     0.9730    -2.0930 ha         1 SWY       0.151500
     56 HAG         -4.7260     0.6280     1.9180 ha         1 SWY       0.151500
     57 HAD         -3.8850     3.3580    -2.1110 ha         1 SWY       0.149500
     58 HAH         -5.3750     2.9780     1.9060 ha         1 SWY       0.149500
     59 HAA1        -6.5790     4.8130     1.1200 h1         1 SWY       0.045367
     60 HAA2        -4.9880     5.2780     1.7650 h1         1 SWY       0.045367
     61 HAA3        -5.7970     6.3040     0.5670 h1         1 SWY       0.045367
@<TRIPOS>BOND
     1     1     2 2   
     2     2     3 1   
     3     2    15 1   
     4     3     4 ar  
     5     3     5 ar  
     6     4     8 ar  
     7     4    12 ar  
     8     5     6 ar  
     9     5    39 1   
    10     6     7 ar  
    11     6    40 1   
    12     7     8 ar  
    13     7    41 1   
    14     8     9 ar  
    15     9    10 ar  
    16     9    42 1   
    17    10    11 ar  
    18    10    43 1   
    19    11    12 ar  
    20    11    44 1   
    21    12    13 1   
    22    13    14 2   
    23    13    15 1   
    24    15    16 1   
    25    16    17 1   
    26    16    45 1   
    27    16    46 1   
    28    17    18 1   
    29    17    47 1   
    30    17    48 1   
    31    18    19 1   
    32    18    49 1   
    33    18    50 1   
    34    19    20 1   
    35    20    21 2   
    36    20    30 1   
    37    21    22 1   
    38    22    23 2   
    39    23    24 1   
    40    23    30 1   
    41    24    25 ar  
    42    24    29 ar  
    43    25    26 ar  
    44    25    51 1   
    45    26    27 ar  
    46    26    53 1   
    47    27    28 ar  
    48    28    29 ar  
    49    28    54 1   
    50    29    52 1   
    51    30    31 1   
    52    31    32 ar  
    53    31    38 ar  
    54    32    33 ar  
    55    32    55 1   
    56    33    34 ar  
    57    33    57 1   
    58    34    35 1   
    59    34    37 ar  
    60    35    36 1   
    61    36    59 1   
    62    36    60 1   
    63    36    61 1   
    64    37    38 ar  
    65    37    58 1   
    66    38    56 1   
@<TRIPOS>SUBSTRUCTURE
     1 SWY         1 TEMP              0 ****  ****    0 ROOT
