@<TRIPOS>MOLECULE
SWY
   61    66     1     0     0
SMALL
No Charge or Current Charge


@<TRIPOS>ATOM
      1 OAQ          4.1350    -0.5890     2.3440 o          1 SWY      -0.521500
      2 CAP          4.7510    -0.4860     1.2910 c          1 SWY       0.591100
      3 CAR          6.0950     0.1850     1.2470 ca         1 SWY      -0.164600
      4 CBC          6.8010     0.3010     0.0340 ca         1 SWY       0.022000
      5 CAS          6.6620     0.7080     2.4310 ca         1 SWY      -0.016000
      6 CAT          7.9170     1.3370     2.4020 ca         1 SWY      -0.131000
      7 CAU          8.6190     1.4520     1.1940 ca         1 SWY      -0.055500
      8 CAV          8.0660     0.9360     0.0090 ca         1 SWY      -0.062000
      9 CAW          8.7720     1.0520    -1.2010 ca         1 SWY      -0.055500
     10 CAX          8.2230     0.5370    -2.3840 ca         1 SWY      -0.131000
     11 CAY          6.9690    -0.0930    -2.3630 ca         1 SWY      -0.016000
     12 CAZ          6.2480    -0.2160    -1.1530 ca         1 SWY      -0.164600
     13 CBA          4.9060    -0.8930    -1.1440 c          1 SWY       0.591100
     14 OBB          4.4230    -1.3440    -2.1750 o          1 SWY      -0.521500
     15 NAO          4.2300    -0.9790     0.0840 n          1 SWY      -0.374400
     16 CAN          2.9120    -1.6750     0.1160 c3         1 SWY       0.094000
     17 CAM          1.7280    -0.7150    -0.1200 c3         1 SWY      -0.090400
     18 CAL          0.3640    -1.4290    -0.0880 c3         1 SWY       0.057600
     19 SAK         -0.9990    -0.2140    -0.3770 ss         1 SWY      -0.325300
     20 CAJ         -2.4340    -1.2350    -0.3020 cc         1 SWY       0.492800
     21 NBD         -2.4390    -2.5280    -0.0410 nd         1 SWY      -0.369000
     22 NBE         -3.7690    -2.9020     0.0500 nd         1 SWY      -0.343000
     23 CBF         -4.5330    -1.8260    -0.1470 cc         1 SWY       0.443000
     24 CBG         -6.0070    -1.8170    -0.1040 ca         1 SWY      -0.085500
     25 CBH         -6.7150    -2.8440     0.5580 ca         1 SWY      -0.136500
     26 CBI         -8.1200    -2.8430     0.5540 ca         1 SWY       0.329400
     27 NBJ         -8.8550    -1.9010    -0.0800 nb         1 SWY      -0.657000
     28 CBK         -8.1880    -0.9280    -0.7410 ca         1 SWY       0.329400
     29 CBL         -6.7850    -0.8550    -0.7880 ca         1 SWY      -0.136500
     30 NAI         -3.7060    -0.7550    -0.4130 na         1 SWY      -0.250800
     31 CAF         -4.0470     0.5930    -0.2840 ca         1 SWY      -0.066200
     32 CAE         -3.7900     1.4880    -1.3390 ca         1 SWY      -0.050000
     33 CAD         -4.1400     2.8430    -1.2160 ca         1 SWY      -0.171500
     34 CAC         -4.7470     3.3180    -0.0430 ca         1 SWY       0.160100
     35 OAB         -5.0690     4.6590     0.0180 os         1 SWY      -0.335100
     36 CAA         -5.6930     5.2460     1.1740 c3         1 SWY       0.145900
     37 CAH         -5.0030     2.4240     1.0190 ca         1 SWY      -0.171500
     38 CAG         -4.6530     1.0670     0.8970 ca         1 SWY      -0.050000
     39 HAS          6.1330     0.6290     3.3790 ha         1 SWY       0.141000
     40 HAT          8.3450     1.7360     3.3190 ha         1 SWY       0.125000
     41 HAU          9.5910     1.9410     1.1800 ha         1 SWY       0.120000
     42 HAW          9.7450     1.5390    -1.2260 ha         1 SWY       0.120000
     43 HAX          8.7690     0.6270    -3.3210 ha         1 SWY       0.125000
     44 HAY          6.5600    -0.4860    -3.2920 ha         1 SWY       0.141000
     45 HAN1         2.8900    -2.4690    -0.6430 h1         1 SWY       0.073700
     46 HAN2         2.7800    -2.1800     1.0820 h1         1 SWY       0.073700
     47 HAM1         1.7420     0.0700     0.6450 hc         1 SWY       0.062700
     48 HAM2         1.8520    -0.2210    -1.0920 hc         1 SWY       0.062700
     49 HAL1         0.3280    -2.2030    -0.8660 h1         1 SWY       0.083700
     50 HAL2         0.2160    -1.9090     0.8890 h1         1 SWY       0.083700
     51 HBH         -6.1890    -3.6370     1.0840 ha         1 SWY       0.137500
     52 HBL         -6.3250    -0.0590    -1.3660 ha         1 SWY       0.137500
     53 HBI         -8.6760    -3.6240     1.0720 h4         1 SWY       0.021600
     54 HBK         -8.7970    -0.1890    -1.2590 h4         1 SWY       0.021600
     55 HAE         -3.3220     1.1320    -2.2550 ha         1 SWY       0.133500
     56 HAG         -4.8520     0.3870     1.7230 ha         1 SWY       0.133500
     57 HAD         -3.9410     3.5300    -2.0350 ha         1 SWY       0.131500
     58 HAH         -5.4690     2.7600     1.9400 ha         1 SWY       0.131500
     59 HAA1        -6.6650     4.7770     1.3730 h1         1 SWY       0.045367
     60 HAA2        -5.0580     5.1320     2.0610 h1         1 SWY       0.045367
     61 HAA3        -5.8610     6.3180     1.0110 h1         1 SWY       0.045367
@<TRIPOS>BOND
     1     1     2 2   
     2     2     3 1   
     3     2    15 1   
     4     3     4 ar  
     5     3     5 ar  
     6     4     8 ar  
     7     4    12 ar  
     8     5     6 ar  
     9     5    39 1   
    10     6     7 ar  
    11     6    40 1   
    12     7     8 ar  
    13     7    41 1   
    14     8     9 ar  
    15     9    10 ar  
    16     9    42 1   
    17    10    11 ar  
    18    10    43 1   
    19    11    12 ar  
    20    11    44 1   
    21    12    13 1   
    22    13    14 2   
    23    13    15 1   
    24    15    16 1   
    25    16    17 1   
    26    16    45 1   
    27    16    46 1   
    28    17    18 1   
    29    17    47 1   
    30    17    48 1   
    31    18    19 1   
    32    18    49 1   
    33    18    50 1   
    34    19    20 1   
    35    20    21 2   
    36    20    30 1   
    37    21    22 1   
    38    22    23 2   
    39    23    24 1   
    40    23    30 1   
    41    24    25 ar  
    42    24    29 ar  
    43    25    26 ar  
    44    25    51 1   
    45    26    27 ar  
    46    26    53 1   
    47    27    28 ar  
    48    28    29 ar  
    49    28    54 1   
    50    29    52 1   
    51    30    31 1   
    52    31    32 ar  
    53    31    38 ar  
    54    32    33 ar  
    55    32    55 1   
    56    33    34 ar  
    57    33    57 1   
    58    34    35 1   
    59    34    37 ar  
    60    35    36 1   
    61    36    59 1   
    62    36    60 1   
    63    36    61 1   
    64    37    38 ar  
    65    37    58 1   
    66    38    56 1   
@<TRIPOS>SUBSTRUCTURE
     1 SWY         1 TEMP              0 ****  ****    0 ROOT
