@<TRIPOS>MOLECULE
SX0
   46    48     1     0     0
SMALL
No Charge or Current Charge


@<TRIPOS>ATOM
      1 C           -7.7720     1.7570    -0.6920 c          1 SX0       0.694000
      2 N           -7.3130     0.4310     1.5270 n8         1 SX0      -1.005200
      3 OXT         -7.6620     2.9450    -0.9630 o          1 SX0      -0.730000
      4 N1           6.0170    -0.0730    -0.6550 nb         1 SX0      -0.312000
      5 C2           5.5800    -1.3100    -0.9890 ca         1 SX0       0.177900
      6 N3           4.2920    -1.7270    -1.0410 nb         1 SX0      -0.229000
      7 C4           3.3550    -0.8090    -0.7260 ca         1 SX0       0.147500
      8 C5           3.7130     0.4710    -0.3770 ca         1 SX0      -0.236800
      9 C6           5.0690     0.8230    -0.3490 ca         1 SX0       0.441900
     10 N6           5.5140     2.0580    -0.0150 nv         1 SX0      -1.075900
     11 C7           2.5190     1.2170    -0.0990 cc         1 SX0      -0.092500
     12 C8           1.4670     0.3380    -0.2980 cd         1 SX0      -0.108100
     13 N9           1.9720    -0.9320    -0.6830 na         1 SX0      -0.201400
     14 CA          -6.7300     1.1180     0.3160 c3         1 SX0       0.012500
     15 CB          -5.7630     0.1720    -0.4450 c3         1 SX0      -0.045400
     16 SD          -3.4010    -1.3080    -0.6470 ss         1 SX0      -0.436000
     17 CG          -4.5370    -0.2690     0.3810 c3         1 SX0       0.081600
     18 C1           1.1930    -2.1460    -0.9690 c5         1 SX0       0.313300
     19 C9           1.3330    -3.2820     0.1060 c5         1 SX0       0.097300
     20 O2           1.0830    -4.6040    -0.4050 oh         1 SX0      -0.702000
     21 C3           0.1980    -2.8600     1.0780 c5         1 SX0       0.085300
     22 O3          -0.1570    -3.9310     1.9720 oh         1 SX0      -0.703000
     23 C10         -0.9150    -2.5150     0.0430 c5         1 SX0       0.178300
     24 O4          -0.2210    -1.8080    -1.0140 os         1 SX0      -0.423000
     25 C11         -2.0730    -1.6560     0.6020 c3         1 SX0       0.044600
     26 O           -8.7110     1.0700    -1.0730 o          1 SX0      -0.730000
     27 HN          -7.8910     1.1030     2.0470 hn         1 SX0       0.384500
     28 HNA         -8.0010    -0.2620     1.2050 hn         1 SX0       0.384500
     29 HN6          6.4960     2.1600     0.2270 hn         1 SX0       0.500000
     30 HN6A         4.8620     2.6920     0.4400 hn         1 SX0       0.500000
     31 HA          -6.1250     1.9530     0.6950 h1         1 SX0       0.035700
     32 HB          -6.3090    -0.7140    -0.7910 hc         1 SX0       0.055700
     33 HBA         -5.4040     0.6910    -1.3430 hc         1 SX0       0.055700
     34 HG          -3.9900     0.6150     0.7340 h1         1 SX0       0.054700
     35 HGA         -4.8590    -0.8500     1.2540 h1         1 SX0       0.054700
     36 H1           1.5360    -2.5000    -1.9500 h2         1 SX0       0.126700
     37 H2           2.3150    -3.2430     0.5980 h1         1 SX0       0.068700
     38 HO2          0.5750    -5.0480     0.3190 ho         1 SX0       0.522000
     39 H3           0.4840    -1.9610     1.6440 h1         1 SX0       0.054700
     40 HO3          0.3160    -3.7770     2.8260 ho         1 SX0       0.510000
     41 H4          -1.3420    -3.4340    -0.3810 h1         1 SX0       0.093700
     42 H5          -1.6690    -0.7040     0.9700 h1         1 SX0       0.062700
     43 H5'A        -2.5240    -2.1830     1.4530 h1         1 SX0       0.062700
     44 H6           6.3410    -2.0470    -1.2410 h5         1 SX0       0.041100
     45 Br           2.3210     3.0190     0.4260 br         1 SX0      -0.060700
     46 H8           0.4020     0.5270    -0.1960 h4         1 SX0       0.250000
@<TRIPOS>BOND
     1     1     3 1   
     2     1    14 1   
     3     1    26 1   
     4     2    14 1   
     5     2    27 1   
     6     2    28 1   
     7     4     5 ar  
     8     4     9 ar  
     9     5     6 ar  
    10     5    44 1   
    11     6     7 ar  
    12     7     8 ar  
    13     7    13 1   
    14     8     9 ar  
    15     8    11 1   
    16     9    10 1   
    17    10    29 1   
    18    10    30 1   
    19    11    12 2   
    20    11    45 1   
    21    12    13 1   
    22    12    46 1   
    23    13    18 1   
    24    14    15 1   
    25    14    31 1   
    26    15    17 1   
    27    15    32 1   
    28    15    33 1   
    29    16    17 1   
    30    16    25 1   
    31    17    34 1   
    32    17    35 1   
    33    18    19 1   
    34    18    24 1   
    35    18    36 1   
    36    19    20 1   
    37    19    21 1   
    38    19    37 1   
    39    20    38 1   
    40    21    22 1   
    41    21    23 1   
    42    21    39 1   
    43    22    40 1   
    44    23    24 1   
    45    23    25 1   
    46    23    41 1   
    47    25    42 1   
    48    25    43 1   
@<TRIPOS>SUBSTRUCTURE
     1 SX0         1 TEMP              0 ****  ****    0 ROOT
