@<TRIPOS>MOLECULE
SX0
   46    48     1     0     0
SMALL
abcg2


@<TRIPOS>ATOM
      1 C           -7.8450     1.4600    -0.7260 c          1 SX0       0.694000
      2 N           -7.3830    -0.4260     0.9160 n8         1 SX0      -1.005200
      3 OXT         -7.4790     2.5720    -1.1620 o          1 SX0      -0.730000
      4 N1           5.8760    -0.3850    -1.1030 nb         1 SX0      -0.312000
      5 C2           5.2560    -1.5120    -1.4390 ca         1 SX0       0.177900
      6 N3           3.9800    -1.8080    -1.3030 nb         1 SX0      -0.229000
      7 C4           3.2770    -0.8120    -0.7620 ca         1 SX0       0.147500
      8 C5           3.7830     0.4280    -0.3550 ca         1 SX0      -0.236800
      9 C6           5.1690     0.6090    -0.5570 ca         1 SX0       0.441900
     10 N6           5.8230     1.7320    -0.2430 nv         1 SX0      -1.075900
     11 C7           2.6660     1.1490     0.1610 cc         1 SX0      -0.092500
     12 C8           1.5670     0.3510     0.0510 cd         1 SX0      -0.108100
     13 N9           1.9440    -0.8440    -0.5120 na         1 SX0      -0.201400
     14 CA          -6.8700     0.7690     0.2630 c3         1 SX0       0.012500
     15 CB          -5.5580     0.4500    -0.4610 c3         1 SX0      -0.045400
     16 SD          -2.9870    -0.4620    -0.4690 ss         1 SX0      -0.436000
     17 CG          -4.4860    -0.0740     0.4820 c3         1 SX0       0.081600
     18 C1           1.0990    -2.0010    -0.7870 c5         1 SX0       0.313300
     19 C9           1.2180    -3.0640     0.3050 c5         1 SX0       0.097300
     20 O2           0.9310    -4.3060    -0.2770 oh         1 SX0      -0.702000
     21 C3           0.0970    -2.6310     1.2570 c5         1 SX0       0.085300
     22 O3          -0.4060    -3.6650     2.0540 oh         1 SX0      -0.703000
     23 C10         -0.9700    -2.1550     0.2750 c5         1 SX0       0.178300
     24 O4          -0.2360    -1.5950    -0.8130 os         1 SX0      -0.423000
     25 C11         -1.9190    -1.1240     0.8410 c3         1 SX0       0.044600
     26 O           -8.8980     0.8590    -1.0130 o          1 SX0      -0.730000
     27 HN          -8.1750    -0.1640     1.4890 hn         1 SX0       0.384500
     28 HNA         -7.7820    -1.0240     0.2010 hn         1 SX0       0.384500
     29 HN6          6.8200     1.7680    -0.3650 hn         1 SX0       0.500000
     30 HN6A         5.3850     2.4940     0.2420 hn         1 SX0       0.500000
     31 HA          -6.6400     1.4980     1.0490 h1         1 SX0       0.035700
     32 HB          -5.7480    -0.2910    -1.2460 hc         1 SX0       0.055700
     33 HBA         -5.2030     1.3530    -0.9590 hc         1 SX0       0.055700
     34 HG          -4.2540     0.6750     1.2420 h1         1 SX0       0.054700
     35 HGA         -4.8300    -0.9760     0.9890 h1         1 SX0       0.054700
     36 H1           1.4030    -2.3960    -1.7600 h2         1 SX0       0.126700
     37 H2           2.2060    -3.0540     0.7800 h1         1 SX0       0.068700
     38 HO2          0.5440    -4.8700     0.4050 ho         1 SX0       0.522000
     39 H3           0.4460    -1.7860     1.8650 h1         1 SX0       0.054700
     40 HO3          0.1530    -3.7590     2.8320 ho         1 SX0       0.510000
     41 H4          -1.5510    -3.0120    -0.0860 h1         1 SX0       0.093700
     42 H5          -1.3740    -0.3170     1.3360 h1         1 SX0       0.062700
     43 H5'A        -2.5460    -1.6110     1.5910 h1         1 SX0       0.062700
     44 H6           5.8860    -2.2800    -1.8760 h5         1 SX0       0.041100
     45 BR           2.6500     2.8800     0.8550 br         1 SX0      -0.060700
     46 H8           0.5460     0.5650     0.3160 h4         1 SX0       0.250000
@<TRIPOS>BOND
     1     1     3 1   
     2     1    14 1   
     3     1    26 1   
     4     2    14 1   
     5     2    27 1   
     6     2    28 1   
     7     4     5 ar  
     8     4     9 ar  
     9     5     6 ar  
    10     5    44 1   
    11     6     7 ar  
    12     7     8 ar  
    13     7    13 1   
    14     8     9 ar  
    15     8    11 1   
    16     9    10 1   
    17    10    29 1   
    18    10    30 1   
    19    11    12 2   
    20    11    45 1   
    21    12    13 1   
    22    12    46 1   
    23    13    18 1   
    24    14    15 1   
    25    14    31 1   
    26    15    17 1   
    27    15    32 1   
    28    15    33 1   
    29    16    17 1   
    30    16    25 1   
    31    17    34 1   
    32    17    35 1   
    33    18    19 1   
    34    18    24 1   
    35    18    36 1   
    36    19    20 1   
    37    19    21 1   
    38    19    37 1   
    39    20    38 1   
    40    21    22 1   
    41    21    23 1   
    42    21    39 1   
    43    22    40 1   
    44    23    24 1   
    45    23    25 1   
    46    23    41 1   
    47    25    42 1   
    48    25    43 1   
@<TRIPOS>SUBSTRUCTURE
     1 SX0         1 TEMP              0 ****  ****    0 ROOT
