@<TRIPOS>MOLECULE
SX1
   16    16     1     0     0
SMALL
No Charge or Current Charge


@<TRIPOS>ATOM
      1 O1           2.4200     2.2190     0.5500 o          1 SX1      -0.724500
      2 C7           2.6360     1.1420     0.0120 c          1 SX1       0.723600
      3 O2           3.6890     0.8810    -0.5540 o          1 SX1      -0.724500
      4 C6           1.5230     0.1260     0.0020 ca         1 SX1      -0.217600
      5 C1           1.7710    -1.2610     0.0650 ca         1 SX1       0.356000
      6 N1           3.0360    -1.7600     0.1430 nv         1 SX1      -1.106000
      7 C5           0.1840     0.5760    -0.0630 ca         1 SX1      -0.018000
      8 C4          -0.8780    -0.3440    -0.0740 ca         1 SX1      -0.095900
      9 Br1         -2.6810     0.2830    -0.1670 br         1 SX1      -0.177100
     10 C3          -0.6210    -1.7210    -0.0160 ca         1 SX1      -0.059000
     11 C2           0.7060    -2.1740     0.0540 ca         1 SX1      -0.242000
     12 HN1          3.7740    -1.1020    -0.1210 hn         1 SX1       0.480000
     13 HN1A         3.1910    -2.7330    -0.1080 hn         1 SX1       0.480000
     14 H5          -0.0350     1.6410    -0.1120 ha         1 SX1       0.144000
     15 H3          -1.4420    -2.4340    -0.0230 ha         1 SX1       0.095000
     16 H2           0.9010    -3.2420     0.1040 ha         1 SX1       0.086000
@<TRIPOS>BOND
     1     1     2 1   
     2     2     3 1   
     3     2     4 1   
     4     4     5 ar  
     5     4     7 ar  
     6     5     6 1   
     7     5    11 ar  
     8     6    12 1   
     9     6    13 1   
    10     7     8 ar  
    11     7    14 1   
    12     8     9 1   
    13     8    10 ar  
    14    10    11 ar  
    15    10    15 1   
    16    11    16 1   
@<TRIPOS>SUBSTRUCTURE
     1 SX1         1 TEMP              0 ****  ****    0 ROOT
