@<TRIPOS>MOLECULE
SX1
   16    16     1     0     0
SMALL
abcg2


@<TRIPOS>ATOM
      1 O1           2.2520     2.3600     0.0490 o          1 SX1      -0.724500
      2 C7           2.6110     1.1710    -0.0100 c          1 SX1       0.723600
      3 O2           3.7970     0.7720    -0.1010 o          1 SX1      -0.724500
      4 C6           1.5160     0.1140     0.0140 ca         1 SX1      -0.217600
      5 C1           1.7790    -1.2770     0.0310 ca         1 SX1       0.356000
      6 N1           3.0420    -1.7780     0.1160 nv         1 SX1      -1.106000
      7 C5           0.1930     0.5480    -0.0080 ca         1 SX1      -0.018000
      8 C4          -0.8610    -0.3450    -0.0250 ca         1 SX1      -0.095900
      9 BR1         -2.6460     0.2930    -0.0560 br         1 SX1      -0.177100
     10 C3          -0.6170    -1.7130    -0.0230 ca         1 SX1      -0.059000
     11 C2           0.6860    -2.1630     0.0050 ca         1 SX1      -0.242000
     12 HN1          3.7740    -1.1090    -0.0840 hn         1 SX1       0.480000
     13 HN1A         3.1880    -2.7320    -0.1690 hn         1 SX1       0.480000
     14 H5           0.0140     1.6150    -0.0160 ha         1 SX1       0.144000
     15 H3          -1.4280    -2.4290    -0.0410 ha         1 SX1       0.095000
     16 H2           0.8720    -3.2310     0.0100 ha         1 SX1       0.086000
@<TRIPOS>BOND
     1     1     2 1   
     2     2     3 1   
     3     2     4 1   
     4     4     5 ar  
     5     4     7 ar  
     6     5     6 1   
     7     5    11 ar  
     8     6    12 1   
     9     6    13 1   
    10     7     8 ar  
    11     7    14 1   
    12     8     9 1   
    13     8    10 ar  
    14    10    11 ar  
    15    10    15 1   
    16    11    16 1   
@<TRIPOS>SUBSTRUCTURE
     1 SX1         1 TEMP              0 ****  ****    0 ROOT
