@<TRIPOS>MOLECULE
SX2
   23    23     1     0     0
SMALL
bcc


@<TRIPOS>ATOM
      1 BR1         -4.7790    -0.1080     0.1250 br         1 SX2      -0.110100
      2 C8          -2.9150    -0.3560     0.0920 ca         1 SX2      -0.206200
      3 C9          -2.0640     0.7310     0.1770 ca         1 SX2       0.476200
      4 N2          -0.7430     0.6130     0.1580 nb         1 SX2      -0.684000
      5 C7          -2.3650    -1.6280    -0.0190 ca         1 SX2      -0.038000
      6 C6          -0.9940    -1.7510    -0.0420 ca         1 SX2      -0.317300
      7 C5          -0.2100    -0.5920     0.0490 ca         1 SX2       0.586200
      8 N1           1.1660    -0.7450     0.0290 ns         1 SX2      -0.570400
      9 C4           2.1580     0.2070     0.0290 c          1 SX2       0.660100
     10 O3           1.9460     1.3990     0.0390 o          1 SX2      -0.534100
     11 C3           3.5430    -0.4040     0.0130 c3         1 SX2      -0.129400
     12 C2           4.6620     0.6190     0.0020 c3         1 SX2      -0.204400
     13 C1           6.0800     0.0170    -0.0150 c          1 SX2       0.928600
     14 O2           7.0150     0.8440    -0.0180 o          1 SX2      -0.843300
     15 O1           6.1890    -1.2240    -0.0260 o          1 SX2      -0.843300
     16 H9          -2.4540     1.7390     0.2660 h4         1 SX2       0.030100
     17 H7          -2.9880    -2.5100    -0.0900 ha         1 SX2       0.140000
     18 H6          -0.5360    -2.7270    -0.1300 ha         1 SX2       0.141000
     19 HN1          1.4830    -1.7030    -0.0100 hn         1 SX2       0.321500
     20 H3           3.6340    -1.0630     0.8820 hc         1 SX2       0.061200
     21 H3A          3.6180    -1.0650    -0.8550 hc         1 SX2       0.061200
     22 H2           4.5620     1.2780    -0.8660 hc         1 SX2       0.037200
     23 H2A          4.5800     1.2760     0.8720 hc         1 SX2       0.037200
@<TRIPOS>BOND
     1     1     2 1   
     2     2     3 ar  
     3     2     5 ar  
     4     3     4 ar  
     5     3    16 1   
     6     4     7 ar  
     7     5     6 ar  
     8     5    17 1   
     9     6     7 ar  
    10     6    18 1   
    11     7     8 1   
    12     8     9 1   
    13     8    19 1   
    14     9    10 2   
    15     9    11 1   
    16    11    12 1   
    17    11    20 1   
    18    11    21 1   
    19    12    13 1   
    20    12    22 1   
    21    12    23 1   
    22    13    14 1   
    23    13    15 1   
@<TRIPOS>SUBSTRUCTURE
     1 SX2         1 TEMP              0 ****  ****    0 ROOT
