@<TRIPOS>MOLECULE
SX2
   23    23     1     0     0
SMALL
No Charge or Current Charge


@<TRIPOS>ATOM
      1 Br1         -4.7290    -0.0650    -0.3350 br         1 SX2      -0.110100
      2 C8          -2.8430    -0.3310    -0.1420 ca         1 SX2      -0.140900
      3 C9          -1.9620     0.7680    -0.1180 ca         1 SX2       0.410900
      4 N2          -0.6210     0.6350     0.0130 nb         1 SX2      -0.684000
      5 C7          -2.3200    -1.6290    -0.0320 ca         1 SX2      -0.020000
      6 C6          -0.9300    -1.7650     0.1050 ca         1 SX2      -0.234000
      7 C5          -0.1300    -0.6130     0.1470 ca         1 SX2       0.520900
      8 N1           1.2640    -0.7180     0.2160 ns         1 SX2      -0.336900
      9 C4           2.1970     0.1190     0.7910 c          1 SX2       0.593100
     10 O3           1.9110     1.1170     1.4410 o          1 SX2      -0.534100
     11 C3           3.6530    -0.3370     0.6080 c3         1 SX2      -0.129400
     12 C2           4.4250     0.5500    -0.4100 c3         1 SX2      -0.204400
     13 C1           5.8720     0.0570    -0.5670 c          1 SX2       0.718000
     14 O2           6.7170     0.5010     0.1940 o          1 SX2      -0.738000
     15 O1           6.0980    -0.8020    -1.4050 o          1 SX2      -0.738000
     16 H9          -2.3410     1.7850    -0.2130 h4         1 SX2       0.030100
     17 H7          -2.9700    -2.5010    -0.0580 ha         1 SX2       0.122000
     18 H6          -0.4770    -2.7490     0.1820 ha         1 SX2       0.123000
     19 HN1          1.6390    -1.5460    -0.2260 hn         1 SX2       0.155000
     20 H3           4.1610    -0.2760     1.5780 hc         1 SX2       0.061200
     21 H3A          3.6750    -1.3730     0.2470 hc         1 SX2       0.061200
     22 H2           3.8860     0.4560    -1.3610 hc         1 SX2       0.037200
     23 H2A          4.4140     1.5660     0.0040 hc         1 SX2       0.037200
@<TRIPOS>BOND
     1     1     2 1   
     2     2     3 ar  
     3     2     5 ar  
     4     3     4 ar  
     5     3    16 1   
     6     4     7 ar  
     7     5     6 ar  
     8     5    17 1   
     9     6     7 ar  
    10     6    18 1   
    11     7     8 1   
    12     8     9 1   
    13     8    19 1   
    14     9    10 2   
    15     9    11 1   
    16    11    12 1   
    17    11    20 1   
    18    11    21 1   
    19    12    13 1   
    20    12    22 1   
    21    12    23 1   
    22    13    14 1   
    23    13    15 1   
@<TRIPOS>SUBSTRUCTURE
     1 SX2         1 TEMP              0 ****  ****    0 ROOT
