@<TRIPOS>MOLECULE
SX3
   37    38     1     0     0
SMALL
bcc


@<TRIPOS>ATOM
      1 BR1          3.8800    -0.5260    -1.1050 br         1 SX3      -0.099100
      2 C11          2.5120     0.4930    -0.2930 ca         1 SX3      -0.076900
      3 C10          1.2150     0.4070    -0.7680 ca         1 SX3      -0.035000
      4 C12          2.8070     1.3250     0.7780 ca         1 SX3      -0.045000
      5 C13          1.8020     2.0750     1.3570 ca         1 SX3      -0.212000
      6 C14          0.4830     2.0260     0.8860 ca         1 SX3       0.209600
      7 N2          -0.5040     2.7460     1.5110 nv         1 SX3      -0.824200
      8 C9           0.2020     1.1590    -0.1840 ca         1 SX3      -0.213600
      9 C8          -1.1760     1.1140    -0.7670 c          1 SX3       0.688700
     10 O1          -1.6590     2.1380    -1.2420 o          1 SX3      -0.617100
     11 N1          -1.8100    -0.0730    -0.7750 n          1 SX3      -0.454800
     12 C6          -1.4790    -1.1870     0.1000 c6         1 SX3       0.093500
     13 C4          -2.4810    -1.2850     1.2490 c6         1 SX3      -0.087700
     14 C5          -2.1570    -2.4810     2.1330 c3         1 SX3      -0.085600
     15 C3          -3.9040    -1.3570     0.7010 c6         1 SX3      -0.071400
     16 C7          -3.1360    -0.1860    -1.3620 c6         1 SX3       0.093500
     17 C2          -4.2150    -0.2300    -0.2830 c6         1 SX3      -0.087700
     18 C1          -5.5920    -0.3950    -0.9090 c3         1 SX3      -0.085600
     19 H10          0.9740    -0.2470    -1.5970 ha         1 SX3       0.151000
     20 H12          3.8140     1.4000     1.1670 ha         1 SX3       0.146000
     21 H13          2.0410     2.7220     2.1930 ha         1 SX3       0.136000
     22 HN2         -0.1840     3.4930     2.1050 hn         1 SX3       0.410800
     23 HN2A        -1.2880     3.0240     0.9440 hn         1 SX3       0.410800
     24 H6          -1.4980    -2.1090    -0.4920 h1         1 SX3       0.059700
     25 H6A         -0.4700    -1.0790     0.4900 h1         1 SX3       0.059700
     26 H4          -2.3830    -0.3690     1.8450 hc         1 SX3       0.058700
     27 H5          -1.1590    -2.4000     2.5690 hc         1 SX3       0.036200
     28 H5A         -2.8710    -2.5660     2.9530 hc         1 SX3       0.036200
     29 H5B         -2.1940    -3.4120     1.5620 hc         1 SX3       0.036200
     30 H3          -4.0430    -2.3210     0.1930 hc         1 SX3       0.041700
     31 H3A         -4.6210    -1.3380     1.5270 hc         1 SX3       0.041700
     32 H7          -3.2990     0.6390    -2.0520 h1         1 SX3       0.059700
     33 H7A         -3.1630    -1.1120    -1.9470 h1         1 SX3       0.059700
     34 H2          -4.1850     0.7240     0.2570 hc         1 SX3       0.058700
     35 H1          -6.3690    -0.4130    -0.1440 hc         1 SX3       0.036200
     36 H1A         -5.8200     0.4210    -1.5970 hc         1 SX3       0.036200
     37 H1B         -5.6560    -1.3310    -1.4700 hc         1 SX3       0.036200
@<TRIPOS>BOND
     1     1     2 1   
     2     2     3 ar  
     3     2     4 ar  
     4     3     8 ar  
     5     3    19 1   
     6     4     5 ar  
     7     4    20 1   
     8     5     6 ar  
     9     5    21 1   
    10     6     7 1   
    11     6     8 ar  
    12     7    22 1   
    13     7    23 1   
    14     8     9 1   
    15     9    10 2   
    16     9    11 1   
    17    11    12 1   
    18    11    16 1   
    19    12    13 1   
    20    12    24 1   
    21    12    25 1   
    22    13    14 1   
    23    13    15 1   
    24    13    26 1   
    25    14    27 1   
    26    14    28 1   
    27    14    29 1   
    28    15    17 1   
    29    15    30 1   
    30    15    31 1   
    31    16    17 1   
    32    16    32 1   
    33    16    33 1   
    34    17    18 1   
    35    17    34 1   
    36    18    35 1   
    37    18    36 1   
    38    18    37 1   
@<TRIPOS>SUBSTRUCTURE
     1 SX3         1 TEMP              0 ****  ****    0 ROOT
