@<TRIPOS>MOLECULE
SX3
   37    38     1     0     0
SMALL
No Charge or Current Charge


@<TRIPOS>ATOM
      1 Br1          3.6860    -0.9110    -0.9380 br         1 SX3      -0.099100
      2 C11          2.4830     0.3870    -0.2150 ca         1 SX3      -0.076900
      3 C10          1.1270     0.3610    -0.5760 ca         1 SX3      -0.017000
      4 C12          2.9590     1.3650     0.6710 ca         1 SX3      -0.027000
      5 C13          2.0720     2.3230     1.1860 ca         1 SX3      -0.194000
      6 C14          0.7150     2.3040     0.8290 ca         1 SX3       0.348000
      7 N2          -0.1060     3.2550     1.3610 nv         1 SX3      -1.073000
      8 C9           0.2230     1.3100    -0.0430 ca         1 SX3      -0.213600
      9 C8          -1.2300     1.2770    -0.4500 c          1 SX3       0.621700
     10 O1          -1.8340     2.3110    -0.7140 o          1 SX3      -0.617100
     11 N1          -1.8430     0.0160    -0.6420 n          1 SX3      -0.387800
     12 C6          -1.5050    -1.1680     0.1990 c6         1 SX3       0.093500
     13 C4          -2.6080    -1.4560     1.2520 c6         1 SX3      -0.087700
     14 C5          -2.2630    -2.7040     2.1080 c3         1 SX3      -0.085600
     15 C3          -3.9930    -1.5980     0.5700 c6         1 SX3      -0.071400
     16 C7          -3.1630    -0.1110    -1.3160 c6         1 SX3       0.093500
     17 C2          -4.3080    -0.3550    -0.3000 c6         1 SX3      -0.087700
     18 C1          -5.6800    -0.4890    -1.0120 c3         1 SX3      -0.085600
     19 H10          0.7820    -0.3930    -1.2810 ha         1 SX3       0.133000
     20 H12          4.0110     1.3850     0.9510 ha         1 SX3       0.128000
     21 H13          2.4450     3.0820     1.8680 ha         1 SX3       0.118000
     22 HN2          0.3130     4.0730     1.7970 hn         1 SX3       0.466000
     23 HN2A        -1.0030     3.4000     0.8940 hn         1 SX3       0.466000
     24 H6          -1.3800    -2.0440    -0.4540 h1         1 SX3       0.059700
     25 H6A         -0.5560    -1.0210     0.7300 h1         1 SX3       0.059700
     26 H4          -2.6480    -0.6060     1.9480 hc         1 SX3       0.058700
     27 H5          -1.3010    -2.5790     2.6190 hc         1 SX3       0.036200
     28 H5A         -3.0250    -2.8790     2.8770 hc         1 SX3       0.036200
     29 H5B         -2.1980    -3.6070     1.4890 hc         1 SX3       0.036200
     30 H3          -4.0090    -2.5030    -0.0540 hc         1 SX3       0.041700
     31 H3A         -4.7730    -1.7280     1.3330 hc         1 SX3       0.041700
     32 H7          -3.3790     0.7880    -1.9110 h1         1 SX3       0.059700
     33 H7A         -3.1170    -0.9530    -2.0210 h1         1 SX3       0.059700
     34 H2          -4.3830     0.5240     0.3550 hc         1 SX3       0.058700
     35 H1          -6.4910    -0.6270    -0.2860 hc         1 SX3       0.036200
     36 H1A         -5.9110     0.4090    -1.5980 hc         1 SX3       0.036200
     37 H1B         -5.6940    -1.3470    -1.6950 hc         1 SX3       0.036200
@<TRIPOS>BOND
     1     1     2 1   
     2     2     3 ar  
     3     2     4 ar  
     4     3     8 ar  
     5     3    19 1   
     6     4     5 ar  
     7     4    20 1   
     8     5     6 ar  
     9     5    21 1   
    10     6     7 1   
    11     6     8 ar  
    12     7    22 1   
    13     7    23 1   
    14     8     9 1   
    15     9    10 2   
    16     9    11 1   
    17    11    12 1   
    18    11    16 1   
    19    12    13 1   
    20    12    24 1   
    21    12    25 1   
    22    13    14 1   
    23    13    15 1   
    24    13    26 1   
    25    14    27 1   
    26    14    28 1   
    27    14    29 1   
    28    15    17 1   
    29    15    30 1   
    30    15    31 1   
    31    16    17 1   
    32    16    32 1   
    33    16    33 1   
    34    17    18 1   
    35    17    34 1   
    36    18    35 1   
    37    18    36 1   
    38    18    37 1   
@<TRIPOS>SUBSTRUCTURE
     1 SX3         1 TEMP              0 ****  ****    0 ROOT
