@<TRIPOS>MOLECULE
SX4
   41    43     1     0     0
SMALL
bcc


@<TRIPOS>ATOM
      1 CL1          4.2770     1.8850     0.4700 cl         1 SX4      -0.103400
      2 C18          4.8040     0.2290     0.5150 ca         1 SX4       0.029400
      3 C17          6.1680    -0.0200     0.4530 ca         1 SX4      -0.122000
      4 C16          6.6250    -1.3270     0.4980 ca         1 SX4      -0.121000
      5 C15          5.7180    -2.3710     0.6100 ca         1 SX4      -0.127000
      6 C14          4.3600    -2.0990     0.6710 ca         1 SX4      -0.122000
      7 C13          3.8650    -0.7960     0.6220 ca         1 SX4      -0.067300
      8 C12          2.3850    -0.5410     0.6660 c3         1 SX4      -0.039100
      9 C11          1.8080    -0.2510    -0.7230 c5         1 SX4       0.110700
     10 C10          1.9930    -1.4070    -1.7100 c5         1 SX4      -0.091400
     11 C9           0.7460    -1.3550    -2.5810 c5         1 SX4      -0.099400
     12 C8          -0.3380    -1.0000    -1.5750 c5         1 SX4       0.102000
     13 N2           0.3500    -0.0700    -0.6780 n          1 SX4      -0.474800
     14 C7          -0.1840     1.0420    -0.1450 c          1 SX4       0.692700
     15 O1           0.5070     1.9540     0.3020 o          1 SX4      -0.621100
     16 C6          -1.6740     1.1190    -0.0870 ca         1 SX4      -0.223600
     17 C1          -2.3460     2.2850    -0.5000 ca         1 SX4       0.224600
     18 N1          -1.6890     3.3450    -1.0620 nv         1 SX4      -0.829200
     19 C5          -2.3880     0.0520     0.4520 ca         1 SX4      -0.033000
     20 C4          -3.7640     0.1130     0.5680 ca         1 SX4      -0.082900
     21 BR1         -4.7130    -1.3390     1.3180 br         1 SX4      -0.101100
     22 C3          -4.4490     1.2410     0.1350 ca         1 SX4      -0.040000
     23 C2          -3.7450     2.3060    -0.3920 ca         1 SX4      -0.220000
     24 H17          6.8660     0.8020     0.3720 ha         1 SX4       0.147000
     25 H16          7.6890    -1.5230     0.4500 ha         1 SX4       0.135000
     26 H15          6.0650    -3.3950     0.6520 ha         1 SX4       0.135000
     27 H14          3.6560    -2.9180     0.7630 ha         1 SX4       0.132000
     28 H12          1.8820    -1.4230     1.0700 hc         1 SX4       0.068700
     29 H12A         2.1680     0.2910     1.3360 hc         1 SX4       0.068700
     30 H11          2.2610     0.6610    -1.1210 h1         1 SX4       0.074700
     31 H10          2.9190    -1.3160    -2.2760 hc         1 SX4       0.055200
     32 H10A         2.0280    -2.3590    -1.1740 hc         1 SX4       0.055200
     33 H9           0.8320    -0.5680    -3.3340 hc         1 SX4       0.056200
     34 H9A          0.5420    -2.2940    -3.0930 hc         1 SX4       0.056200
     35 H8          -1.2120    -0.5380    -2.0290 h1         1 SX4       0.054700
     36 H8A         -0.6690    -1.8930    -1.0370 h1         1 SX4       0.054700
     37 HN1         -0.7340     3.4910    -0.7800 hn         1 SX4       0.418300
     38 HN1A        -2.2130     4.2010    -1.1350 hn         1 SX4       0.418300
     39 H5          -1.8490    -0.8240     0.7920 ha         1 SX4       0.149000
     40 H3          -5.5260     1.3050     0.2100 ha         1 SX4       0.145000
     41 H2          -4.2880     3.1830    -0.7230 ha         1 SX4       0.136000
@<TRIPOS>BOND
     1     1     2 1   
     2     2     3 ar  
     3     2     7 ar  
     4     3     4 ar  
     5     3    24 1   
     6     4     5 ar  
     7     4    25 1   
     8     5     6 ar  
     9     5    26 1   
    10     6     7 ar  
    11     6    27 1   
    12     7     8 1   
    13     8     9 1   
    14     8    28 1   
    15     8    29 1   
    16     9    10 1   
    17     9    13 1   
    18     9    30 1   
    19    10    11 1   
    20    10    31 1   
    21    10    32 1   
    22    11    12 1   
    23    11    33 1   
    24    11    34 1   
    25    12    13 1   
    26    12    35 1   
    27    12    36 1   
    28    13    14 1   
    29    14    15 2   
    30    14    16 1   
    31    16    17 ar  
    32    16    19 ar  
    33    17    18 1   
    34    17    23 ar  
    35    18    37 1   
    36    18    38 1   
    37    19    20 ar  
    38    19    39 1   
    39    20    21 1   
    40    20    22 ar  
    41    22    23 ar  
    42    22    40 1   
    43    23    41 1   
@<TRIPOS>SUBSTRUCTURE
     1 SX4         1 TEMP              0 ****  ****    0 ROOT
