@<TRIPOS>MOLECULE
SX4
   41    43     1     0     0
SMALL
No Charge or Current Charge


@<TRIPOS>ATOM
      1 Cl1          4.4130     1.9320     0.1680 cl         1 SX4      -0.195000
      2 C18          4.8980     0.2530     0.4080 ca         1 SX4       0.121000
      3 C17          6.2700    -0.0550     0.3800 ca         1 SX4      -0.104000
      4 C16          6.7030    -1.3780     0.5680 ca         1 SX4      -0.103000
      5 C15          5.7610    -2.3970     0.7860 ca         1 SX4      -0.109000
      6 C14          4.3890    -2.0930     0.8160 ca         1 SX4      -0.104000
      7 C13          3.9430    -0.7680     0.6270 ca         1 SX4      -0.067300
      8 C12          2.4430    -0.4740     0.6560 c3         1 SX4      -0.039100
      9 C11          1.8180    -0.2920    -0.7500 c5         1 SX4       0.110700
     10 C10          1.9630    -1.5700    -1.6250 c5         1 SX4      -0.091400
     11 C9           0.8350    -1.3580    -2.6560 c5         1 SX4      -0.099400
     12 C8          -0.3340    -0.9790    -1.7170 c5         1 SX4       0.102000
     13 N2           0.3410    -0.1180    -0.7130 n          1 SX4      -0.407800
     14 C7          -0.2330     1.1150    -0.3320 c          1 SX4       0.625700
     15 O1           0.4770     2.0790    -0.0650 o          1 SX4      -0.621100
     16 C6          -1.7310     1.1650    -0.1460 ca         1 SX4      -0.223600
     17 C1          -2.4620     2.3430    -0.4060 ca         1 SX4       0.363000
     18 N1          -1.8500     3.4760    -0.8590 nv         1 SX4      -1.078000
     19 C5          -2.4230     0.0270     0.3310 ca         1 SX4      -0.015000
     20 C4          -3.8150     0.0630     0.5130 ca         1 SX4      -0.082900
     21 Br1         -4.7300    -1.4880     1.1550 br         1 SX4      -0.101100
     22 C3          -4.5340     1.2330     0.2330 ca         1 SX4      -0.022000
     23 C2          -3.8520     2.3710    -0.2230 ca         1 SX4      -0.202000
     24 H17          6.9980     0.7340     0.2120 ha         1 SX4       0.129000
     25 H16          7.7650    -1.6130     0.5450 ha         1 SX4       0.117000
     26 H15          6.0940    -3.4220     0.9320 ha         1 SX4       0.117000
     27 H14          3.6710    -2.8930     0.9820 ha         1 SX4       0.114000
     28 H12          1.9160    -1.2810     1.1800 hc         1 SX4       0.068700
     29 H12A         2.2560     0.4210     1.2600 hc         1 SX4       0.068700
     30 H11          2.2900     0.5670    -1.2480 h1         1 SX4       0.074700
     31 H10          2.9520    -1.6470    -2.0900 hc         1 SX4       0.055200
     32 H10A         1.8000    -2.4860    -1.0440 hc         1 SX4       0.055200
     33 H9           1.0710    -0.5450    -3.3520 hc         1 SX4       0.056200
     34 H9A          0.6230    -2.2550    -3.2490 hc         1 SX4       0.056200
     35 H8          -1.1330    -0.4550    -2.2590 h1         1 SX4       0.054700
     36 H8A         -0.7650    -1.8690    -1.2390 h1         1 SX4       0.054700
     37 HN1         -0.8370     3.5190    -0.7290 hn         1 SX4       0.473500
     38 HN1A        -2.3490     4.3600    -0.8000 hn         1 SX4       0.473500
     39 H5          -1.8850    -0.8830     0.5830 ha         1 SX4       0.131000
     40 H3          -5.6130     1.2610     0.3740 ha         1 SX4       0.127000
     41 H2          -4.4120     3.2780    -0.4360 ha         1 SX4       0.118000
@<TRIPOS>BOND
     1     1     2 1   
     2     2     3 ar  
     3     2     7 ar  
     4     3     4 ar  
     5     3    24 1   
     6     4     5 ar  
     7     4    25 1   
     8     5     6 ar  
     9     5    26 1   
    10     6     7 ar  
    11     6    27 1   
    12     7     8 1   
    13     8     9 1   
    14     8    28 1   
    15     8    29 1   
    16     9    10 1   
    17     9    13 1   
    18     9    30 1   
    19    10    11 1   
    20    10    31 1   
    21    10    32 1   
    22    11    12 1   
    23    11    33 1   
    24    11    34 1   
    25    12    13 1   
    26    12    35 1   
    27    12    36 1   
    28    13    14 1   
    29    14    15 2   
    30    14    16 1   
    31    16    17 ar  
    32    16    19 ar  
    33    17    18 1   
    34    17    23 ar  
    35    18    37 1   
    36    18    38 1   
    37    19    20 ar  
    38    19    39 1   
    39    20    21 1   
    40    20    22 ar  
    41    22    23 ar  
    42    22    40 1   
    43    23    41 1   
@<TRIPOS>SUBSTRUCTURE
     1 SX4         1 TEMP              0 ****  ****    0 ROOT
