@<TRIPOS>MOLECULE
SX5
   47    48     1     0     0
SMALL
No Charge or Current Charge


@<TRIPOS>ATOM
      1 O3          -5.5990    -1.0080    -0.7210 o          1 SX5      -0.737500
      2 C18         -5.4540    -0.2860     0.2530 c          1 SX5       0.717000
      3 O4          -6.1720    -0.3260     1.2400 o          1 SX5      -0.737500
      4 C17         -4.2530     0.6740     0.2690 c3         1 SX5      -0.204400
      5 C16         -3.0040    -0.0260     0.8760 c3         1 SX5      -0.129400
      6 C15         -1.7780     0.9010     0.9120 c          1 SX5       0.596100
      7 O2          -1.6780     1.8030     1.7350 o          1 SX5      -0.593100
      8 N2          -0.8010     0.5840    -0.0190 ns         1 SX5      -0.188000
      9 C14          0.4600     1.1690    -0.3240 ca         1 SX5       0.037000
     10 C13          0.7760     2.4880     0.0760 ca         1 SX5      -0.118000
     11 C12          1.9940     3.0800    -0.2950 ca         1 SX5      -0.061000
     12 C11          2.9030     2.3690    -1.0870 ca         1 SX5      -0.052900
     13 Br1          4.5530     3.1810    -1.6100 br         1 SX5      -0.120100
     14 C10          2.6030     1.0630    -1.5010 ca         1 SX5      -0.045000
     15 C9           1.3960     0.4430    -1.1120 ca         1 SX5      -0.186600
     16 C8           1.1460    -0.9700    -1.5960 c          1 SX5       0.616700
     17 O1           1.3970    -1.2780    -2.7550 o          1 SX5      -0.608100
     18 N1           0.5280    -1.8860    -0.7150 n          1 SX5      -0.387800
     19 C6           1.0040    -1.9440     0.7000 c6         1 SX5       0.095000
     20 C4           0.0220    -2.6620     1.6600 c6         1 SX5      -0.087700
     21 C5           0.5940    -2.7370     3.1000 c3         1 SX5      -0.082600
     22 C3          -0.3400    -4.0620     1.1190 c6         1 SX5      -0.069400
     23 C7           0.0740    -3.2040    -1.2430 c6         1 SX5       0.095000
     24 C2          -0.9170    -3.9440    -0.3090 c6         1 SX5      -0.087700
     25 C1          -1.3060    -5.3320    -0.8830 c3         1 SX5      -0.082600
     26 H17         -3.9750     0.9520    -0.7550 hc         1 SX5       0.034200
     27 H17A        -4.4640     1.5340     0.9180 hc         1 SX5       0.034200
     28 H16         -3.2390    -0.3300     1.9030 hc         1 SX5       0.065700
     29 H16A        -2.7810    -0.9140     0.2720 hc         1 SX5       0.065700
     30 HN2         -1.0210    -0.2270    -0.5830 hn         1 SX5       0.174000
     31 H13          0.0770     3.0830     0.6550 ha         1 SX5       0.144000
     32 H12          2.2220     4.0960     0.0190 ha         1 SX5       0.125000
     33 H10          3.3190     0.5230    -2.1170 ha         1 SX5       0.128000
     34 H6           1.9670    -2.4740     0.7140 h1         1 SX5       0.054200
     35 H6A          1.1990    -0.9340     1.0860 h1         1 SX5       0.054200
     36 H4          -0.8970    -2.0640     1.7270 hc         1 SX5       0.073700
     37 H5           0.8140    -1.7360     3.4910 hc         1 SX5       0.034533
     38 H5A         -0.1200    -3.2090     3.7860 hc         1 SX5       0.034533
     39 H5B          1.5230    -3.3190     3.1320 hc         1 SX5       0.034533
     40 H3           0.5520    -4.7050     1.1120 hc         1 SX5       0.041200
     41 H3A         -1.0730    -4.5430     1.7810 hc         1 SX5       0.041200
     42 H7          -0.4080    -3.0560    -2.2210 h1         1 SX5       0.054200
     43 H7A          0.9580    -3.8360    -1.4090 h1         1 SX5       0.054200
     44 H2          -1.8470    -3.3580    -0.2630 hc         1 SX5       0.073700
     45 H1          -2.0400    -5.8340    -0.2420 hc         1 SX5       0.034533
     46 H1A         -1.7490    -5.2370    -1.8820 hc         1 SX5       0.034533
     47 H1B         -0.4310    -5.9880    -0.9670 hc         1 SX5       0.034533
@<TRIPOS>BOND
     1     1     2 1   
     2     2     3 1   
     3     2     4 1   
     4     4     5 1   
     5     4    26 1   
     6     4    27 1   
     7     5     6 1   
     8     5    28 1   
     9     5    29 1   
    10     6     7 2   
    11     6     8 1   
    12     8     9 1   
    13     8    30 1   
    14     9    10 ar  
    15     9    15 ar  
    16    10    11 ar  
    17    10    31 1   
    18    11    12 ar  
    19    11    32 1   
    20    12    13 1   
    21    12    14 ar  
    22    14    15 ar  
    23    14    33 1   
    24    15    16 1   
    25    16    17 2   
    26    16    18 1   
    27    18    19 1   
    28    18    23 1   
    29    19    20 1   
    30    19    34 1   
    31    19    35 1   
    32    20    21 1   
    33    20    22 1   
    34    20    36 1   
    35    21    37 1   
    36    21    38 1   
    37    21    39 1   
    38    22    24 1   
    39    22    40 1   
    40    22    41 1   
    41    23    24 1   
    42    23    42 1   
    43    23    43 1   
    44    24    25 1   
    45    24    44 1   
    46    25    45 1   
    47    25    46 1   
    48    25    47 1   
@<TRIPOS>SUBSTRUCTURE
     1 SX5         1 TEMP              0 ****  ****    0 ROOT
