@<TRIPOS>MOLECULE
SX5
   47    48     1     0     0
SMALL
abcg2


@<TRIPOS>ATOM
      1 O3          -5.8850    -0.7130    -0.2880 o          1 SX5      -0.737500
      2 C18         -5.7150    -0.1860     0.8290 c          1 SX5       0.717000
      3 O4          -6.5520    -0.1190     1.7520 o          1 SX5      -0.737500
      4 C17         -4.3460     0.4570     1.1210 c3         1 SX5      -0.204400
      5 C16         -3.3310     0.3060     0.0050 c3         1 SX5      -0.129400
      6 C15         -1.9890     0.9350     0.2990 c          1 SX5       0.596100
      7 O2          -1.7240     1.5390     1.3200 o          1 SX5      -0.593100
      8 N2          -1.0770     0.7500    -0.7010 ns         1 SX5      -0.188000
      9 C14          0.2660     1.1510    -0.6660 ca         1 SX5       0.037000
     10 C13          0.6440     2.4220    -0.2450 ca         1 SX5      -0.118000
     11 C12          1.9780     2.7950    -0.2400 ca         1 SX5      -0.061000
     12 C11          2.9420     1.8930    -0.6650 ca         1 SX5      -0.052900
     13 BR1          4.7590     2.4000    -0.6730 br         1 SX5      -0.120100
     14 C10          2.5880     0.6210    -1.0840 ca         1 SX5      -0.045000
     15 C9           1.2510     0.2480    -1.0690 ca         1 SX5      -0.186600
     16 C8           0.8470    -1.1060    -1.5780 c          1 SX5       0.616700
     17 O1           0.3620    -1.1920    -2.7010 o          1 SX5      -0.608100
     18 N1           1.0510    -2.1520    -0.7650 n          1 SX5      -0.387800
     19 C6           1.3740    -2.0430     0.6490 c6         1 SX5       0.095000
     20 C4           0.1660    -2.4050     1.5120 c6         1 SX5      -0.087700
     21 C5           0.5240    -2.3320     2.9890 c3         1 SX5      -0.082600
     22 C3          -0.3540    -3.7840     1.1170 c6         1 SX5      -0.069400
     23 C7           0.6200    -3.4840    -1.1600 c6         1 SX5       0.095000
     24 C2          -0.6260    -3.9010    -0.3820 c6         1 SX5      -0.087700
     25 C1          -1.0510    -5.3100    -0.7680 c3         1 SX5      -0.082600
     26 H17         -4.5080     1.5170     1.3410 hc         1 SX5       0.034200
     27 H17A        -3.9560     0.0270     2.0490 hc         1 SX5       0.034200
     28 H16         -3.1730    -0.7520    -0.2250 hc         1 SX5       0.065700
     29 H16A        -3.7130     0.7420    -0.9230 hc         1 SX5       0.065700
     30 HN2         -1.3690     0.2050    -1.4990 hn         1 SX5       0.174000
     31 H13         -0.1020     3.1410     0.0610 ha         1 SX5       0.144000
     32 H12          2.2510     3.7890     0.0860 ha         1 SX5       0.125000
     33 H10          3.3380    -0.0910    -1.4020 ha         1 SX5       0.128000
     34 H6           2.2000    -2.7290     0.8660 h1         1 SX5       0.054200
     35 H6A          1.7240    -1.0390     0.8810 h1         1 SX5       0.054200
     36 H4          -0.6180    -1.6640     1.3100 hc         1 SX5       0.073700
     37 H5           0.8660    -1.3340     3.2670 hc         1 SX5       0.034533
     38 H5A         -0.3400    -2.5720     3.6100 hc         1 SX5       0.034533
     39 H5B          1.3170    -3.0400     3.2380 hc         1 SX5       0.034533
     40 H3           0.3930    -4.5370     1.4010 hc         1 SX5       0.041200
     41 H3A         -1.2620    -4.0190     1.6810 hc         1 SX5       0.041200
     42 H7           0.4420    -3.5060    -2.2330 h1         1 SX5       0.054200
     43 H7A          1.4380    -4.1810    -0.9490 h1         1 SX5       0.054200
     44 H2          -1.4320    -3.2060    -0.6470 hc         1 SX5       0.073700
     45 H1          -1.9370    -5.6160    -0.2100 hc         1 SX5       0.034533
     46 H1A         -1.2880    -5.3800    -1.8310 hc         1 SX5       0.034533
     47 H1B         -0.2590    -6.0300    -0.5530 hc         1 SX5       0.034533
@<TRIPOS>BOND
     1     1     2 1   
     2     2     3 1   
     3     2     4 1   
     4     4     5 1   
     5     4    26 1   
     6     4    27 1   
     7     5     6 1   
     8     5    28 1   
     9     5    29 1   
    10     6     7 2   
    11     6     8 1   
    12     8     9 1   
    13     8    30 1   
    14     9    10 ar  
    15     9    15 ar  
    16    10    11 ar  
    17    10    31 1   
    18    11    12 ar  
    19    11    32 1   
    20    12    13 1   
    21    12    14 ar  
    22    14    15 ar  
    23    14    33 1   
    24    15    16 1   
    25    16    17 2   
    26    16    18 1   
    27    18    19 1   
    28    18    23 1   
    29    19    20 1   
    30    19    34 1   
    31    19    35 1   
    32    20    21 1   
    33    20    22 1   
    34    20    36 1   
    35    21    37 1   
    36    21    38 1   
    37    21    39 1   
    38    22    24 1   
    39    22    40 1   
    40    22    41 1   
    41    23    24 1   
    42    23    42 1   
    43    23    43 1   
    44    24    25 1   
    45    24    44 1   
    46    25    45 1   
    47    25    46 1   
    48    25    47 1   
@<TRIPOS>SUBSTRUCTURE
     1 SX5         1 TEMP              0 ****  ****    0 ROOT
