@<TRIPOS>MOLECULE
SX6
   60    62     1     0     0
SMALL
No Charge or Current Charge


@<TRIPOS>ATOM
      1 O3          -3.5790    -2.3900    -1.2270 o          1 SX6      -0.613100
      2 C18         -3.8710    -1.2870    -0.7810 c          1 SX6       0.609100
      3 N3          -5.1470    -1.0570    -0.2130 n          1 SX6      -0.413800
      4 C22         -5.6920     0.3350    -0.0580 c6         1 SX6       0.059500
      5 C21         -6.9880     0.4420     0.7860 c6         1 SX6       0.134600
      6 O4          -7.9350    -0.5690     0.3980 os         1 SX6      -0.443000
      7 C20         -7.4310    -1.8970     0.6250 c6         1 SX6       0.134600
      8 C19         -6.1700    -2.1540    -0.2380 c6         1 SX6       0.059500
      9 C17         -2.8370    -0.1410    -0.7710 c3         1 SX6      -0.146400
     10 C16         -1.4220    -0.4960    -1.3130 c3         1 SX6      -0.151400
     11 C15         -0.4700     0.7060    -1.2640 c          1 SX6       0.609100
     12 O2          -0.5750     1.6340    -2.0560 o          1 SX6      -0.579100
     13 N2           0.5130     0.6100    -0.2900 ns         1 SX6      -0.156000
     14 C14          1.5830     1.4670     0.0960 ca         1 SX6       0.028000
     15 C13          1.6810     2.7970    -0.3740 ca         1 SX6      -0.146000
     16 C12          2.7050     3.6470     0.0740 ca         1 SX6      -0.044000
     17 C11          3.6360     3.1840     1.0120 ca         1 SX6      -0.057900
     18 Br1          5.0190     4.3460     1.6390 br         1 SX6      -0.089100
     19 C10          3.5530     1.8710     1.4950 ca         1 SX6      -0.021000
     20 C9           2.5480     0.9950     1.0310 ca         1 SX6      -0.202600
     21 C8           2.5260    -0.4070     1.6010 c          1 SX6       0.610700
     22 O1           2.7000    -0.5890     2.7990 o          1 SX6      -0.575100
     23 N1           2.2030    -1.4790     0.7390 n          1 SX6      -0.418800
     24 C6           2.8480    -1.5290    -0.6080 c6         1 SX6       0.091500
     25 C4           2.1430    -2.4850    -1.6040 c6         1 SX6      -0.074200
     26 C5           2.8890    -2.5350    -2.9630 c3         1 SX6      -0.087100
     27 C3           1.9880    -3.8920    -0.9880 c6         1 SX6      -0.073400
     28 C7           1.9480    -2.8270     1.3250 c6         1 SX6       0.091500
     29 C2           1.2320    -3.8030     0.3570 c6         1 SX6      -0.074200
     30 C1           1.0460    -5.2020     1.0000 c3         1 SX6      -0.087100
     31 H22         -4.9410     0.9860     0.4090 h1         1 SX6       0.064700
     32 H22A        -5.8940     0.7420    -1.0590 h1         1 SX6       0.064700
     33 H21         -6.7500     0.3220     1.8530 h1         1 SX6       0.054700
     34 H21A        -7.4420     1.4350     0.6510 h1         1 SX6       0.054700
     35 H20         -7.1860    -2.0130     1.6910 h1         1 SX6       0.054700
     36 H20A        -8.2120    -2.6290     0.3740 h1         1 SX6       0.054700
     37 H19         -6.4860    -2.3090    -1.2790 h1         1 SX6       0.064700
     38 H19A        -5.7080    -3.0920     0.0990 h1         1 SX6       0.064700
     39 H17         -3.2710     0.7080    -1.3120 hc         1 SX6       0.075200
     40 H17A        -2.7900     0.2560     0.2500 hc         1 SX6       0.075200
     41 H16         -1.0170    -1.3190    -0.7110 hc         1 SX6       0.078200
     42 H16A        -1.5190    -0.8170    -2.3570 hc         1 SX6       0.078200
     43 HN2          0.4730    -0.2480     0.2450 hn         1 SX6       0.168000
     44 H13          0.9590     3.2040    -1.0750 ha         1 SX6       0.152000
     45 H12          2.7660     4.6680    -0.2950 ha         1 SX6       0.132000
     46 H10          4.2840     1.5250     2.2240 ha         1 SX6       0.139000
     47 H6           2.8930    -0.5260    -1.0530 h1         1 SX6       0.055700
     48 H6A          3.8880    -1.8590    -0.4750 h1         1 SX6       0.055700
     49 H4           1.1420    -2.0850    -1.8180 hc         1 SX6       0.049200
     50 H5           3.9080    -2.9240    -2.8450 hc         1 SX6       0.038700
     51 H5A          2.3650    -3.1800    -3.6780 hc         1 SX6       0.038700
     52 H5B          2.9620    -1.5360    -3.4110 hc         1 SX6       0.038700
     53 H3           1.4420    -4.5470    -1.6820 hc         1 SX6       0.047200
     54 H3A          2.9770    -4.3470    -0.8340 hc         1 SX6       0.047200
     55 H7           2.9110    -3.2610     1.6340 h1         1 SX6       0.055700
     56 H7A          1.3350    -2.7180     2.2320 h1         1 SX6       0.055700
     57 H2           0.2220    -3.4160     0.1640 hc         1 SX6       0.049200
     58 H1           2.0120    -5.6680     1.2300 hc         1 SX6       0.038700
     59 H1A          0.4770    -5.1350     1.9350 hc         1 SX6       0.038700
     60 H1B          0.5010    -5.8770     0.3290 hc         1 SX6       0.038700
@<TRIPOS>BOND
     1     1     2 2   
     2     2     3 1   
     3     2     9 1   
     4     3     4 1   
     5     3     8 1   
     6     4     5 1   
     7     4    31 1   
     8     4    32 1   
     9     5     6 1   
    10     5    33 1   
    11     5    34 1   
    12     6     7 1   
    13     7     8 1   
    14     7    35 1   
    15     7    36 1   
    16     8    37 1   
    17     8    38 1   
    18     9    10 1   
    19     9    39 1   
    20     9    40 1   
    21    10    11 1   
    22    10    41 1   
    23    10    42 1   
    24    11    12 2   
    25    11    13 1   
    26    13    14 1   
    27    13    43 1   
    28    14    15 ar  
    29    14    20 ar  
    30    15    16 ar  
    31    15    44 1   
    32    16    17 ar  
    33    16    45 1   
    34    17    18 1   
    35    17    19 ar  
    36    19    20 ar  
    37    19    46 1   
    38    20    21 1   
    39    21    22 2   
    40    21    23 1   
    41    23    24 1   
    42    23    28 1   
    43    24    25 1   
    44    24    47 1   
    45    24    48 1   
    46    25    26 1   
    47    25    27 1   
    48    25    49 1   
    49    26    50 1   
    50    26    51 1   
    51    26    52 1   
    52    27    29 1   
    53    27    53 1   
    54    27    54 1   
    55    28    29 1   
    56    28    55 1   
    57    28    56 1   
    58    29    30 1   
    59    29    57 1   
    60    30    58 1   
    61    30    59 1   
    62    30    60 1   
@<TRIPOS>SUBSTRUCTURE
     1 SX6         1 TEMP              0 ****  ****    0 ROOT
