@<TRIPOS>MOLECULE
SX6
   60    62     1     0     0
SMALL
bcc


@<TRIPOS>ATOM
      1 O3          -3.4770    -2.3180    -0.7930 o          1 SX6      -0.613100
      2 C18         -3.9710    -1.2030    -0.6820 c          1 SX6       0.676100
      3 N3          -5.3070    -1.0090    -0.6840 n          1 SX6      -0.480800
      4 C22         -5.9860     0.2700    -0.5770 c6         1 SX6       0.059500
      5 C21         -6.9720     0.2300     0.5790 c6         1 SX6       0.111400
      6 O4          -7.8800    -0.8400     0.4500 os         1 SX6      -0.396600
      7 C20         -7.2100    -2.0800     0.3780 c6         1 SX6       0.111400
      8 C19         -6.2330    -2.1230    -0.7850 c6         1 SX6       0.059500
      9 C17         -3.0940     0.0270    -0.5280 c3         1 SX6      -0.146400
     10 C16         -1.6200    -0.3310    -0.5570 c3         1 SX6      -0.151400
     11 C15         -0.7270     0.8850    -0.4360 c          1 SX6       0.676100
     12 O2          -1.0790     2.0060    -0.7450 o          1 SX6      -0.579100
     13 N2           0.5210     0.5760     0.0210 ns         1 SX6      -0.482100
     14 C14          1.6350     1.3950     0.2000 ca         1 SX6       0.120600
     15 C13          1.7240     2.6910    -0.3090 ca         1 SX6      -0.164000
     16 C12          2.8640     3.4520    -0.1090 ca         1 SX6      -0.062000
     17 C11          3.9280     2.9320     0.6100 ca         1 SX6      -0.057900
     18 BR1          5.4770     3.9710     0.8840 br         1 SX6      -0.089100
     19 C10          3.8560     1.6540     1.1350 ca         1 SX6      -0.039000
     20 C9           2.7260     0.8790     0.9190 ca         1 SX6      -0.202600
     21 C8           2.6680    -0.4660     1.5890 c          1 SX6       0.677700
     22 O1           2.6780    -0.5240     2.8080 o          1 SX6      -0.575100
     23 N1           2.5480    -1.5470     0.7850 n          1 SX6      -0.485800
     24 C6           2.9910    -1.5670    -0.6060 c6         1 SX6       0.091500
     25 C4           2.0220    -2.3340    -1.4970 c6         1 SX6      -0.074200
     26 C5           2.5580    -2.4060    -2.9190 c3         1 SX6      -0.087100
     27 C3           1.7600    -3.7190    -0.9160 c6         1 SX6      -0.073400
     28 C7           2.3480    -2.8690     1.3620 c6         1 SX6       0.091500
     29 C2           1.3290    -3.6580     0.5460 c6         1 SX6      -0.074200
     30 C1           1.1330    -5.0450     1.1370 c3         1 SX6      -0.087100
     31 H22         -5.2840     1.0840    -0.4210 h1         1 SX6       0.064700
     32 H22A        -6.5150     0.4750    -1.5140 h1         1 SX6       0.064700
     33 H21         -6.4150     0.1560     1.5240 h1         1 SX6       0.054700
     34 H21A        -7.5530     1.1530     0.6010 h1         1 SX6       0.054700
     35 H20         -6.6700    -2.2810     1.3140 h1         1 SX6       0.054700
     36 H20A        -7.9680    -2.8540     0.2530 h1         1 SX6       0.054700
     37 H19         -6.7760    -2.0580    -1.7340 h1         1 SX6       0.064700
     38 H19A        -5.6870    -3.0630    -0.7770 h1         1 SX6       0.064700
     39 H17         -3.3200     0.7460    -1.3180 hc         1 SX6       0.075200
     40 H17A        -3.3370     0.5260     0.4140 hc         1 SX6       0.075200
     41 H16         -1.3900    -1.0520     0.2290 hc         1 SX6       0.078200
     42 H16A        -1.3680    -0.8200    -1.5030 hc         1 SX6       0.078200
     43 HN2          0.6500    -0.3890     0.2890 hn         1 SX6       0.334500
     44 H13          0.9090     3.1210    -0.8680 ha         1 SX6       0.170000
     45 H12          2.9060     4.4490    -0.5250 ha         1 SX6       0.150000
     46 H10          4.6780     1.2410     1.7060 ha         1 SX6       0.157000
     47 H6           3.1270    -0.5500    -0.9730 h1         1 SX6       0.055700
     48 H6A          3.9780    -2.0460    -0.6440 h1         1 SX6       0.055700
     49 H4           1.0730    -1.7830    -1.5180 hc         1 SX6       0.049200
     50 H5           3.5080    -2.9440    -2.9520 hc         1 SX6       0.038700
     51 H5A          1.8570    -2.9300    -3.5700 hc         1 SX6       0.038700
     52 H5B          2.7220    -1.4120    -3.3380 hc         1 SX6       0.038700
     53 H3           1.0010    -4.2340    -1.5120 hc         1 SX6       0.047200
     54 H3A          2.6760    -4.3190    -0.9920 hc         1 SX6       0.047200
     55 H7           3.3050    -3.4060     1.3820 h1         1 SX6       0.055700
     56 H7A          2.0120    -2.7610     2.3910 h1         1 SX6       0.055700
     57 H2           0.3730    -3.1210     0.6040 hc         1 SX6       0.049200
     58 H1           2.0590    -5.6230     1.1040 hc         1 SX6       0.038700
     59 H1A          0.8080    -4.9950     2.1780 hc         1 SX6       0.038700
     60 H1B          0.3780    -5.6000     0.5800 hc         1 SX6       0.038700
@<TRIPOS>BOND
     1     1     2 2   
     2     2     3 1   
     3     2     9 1   
     4     3     4 1   
     5     3     8 1   
     6     4     5 1   
     7     4    31 1   
     8     4    32 1   
     9     5     6 1   
    10     5    33 1   
    11     5    34 1   
    12     6     7 1   
    13     7     8 1   
    14     7    35 1   
    15     7    36 1   
    16     8    37 1   
    17     8    38 1   
    18     9    10 1   
    19     9    39 1   
    20     9    40 1   
    21    10    11 1   
    22    10    41 1   
    23    10    42 1   
    24    11    12 2   
    25    11    13 1   
    26    13    14 1   
    27    13    43 1   
    28    14    15 ar  
    29    14    20 ar  
    30    15    16 ar  
    31    15    44 1   
    32    16    17 ar  
    33    16    45 1   
    34    17    18 1   
    35    17    19 ar  
    36    19    20 ar  
    37    19    46 1   
    38    20    21 1   
    39    21    22 2   
    40    21    23 1   
    41    23    24 1   
    42    23    28 1   
    43    24    25 1   
    44    24    47 1   
    45    24    48 1   
    46    25    26 1   
    47    25    27 1   
    48    25    49 1   
    49    26    50 1   
    50    26    51 1   
    51    26    52 1   
    52    27    29 1   
    53    27    53 1   
    54    27    54 1   
    55    28    29 1   
    56    28    55 1   
    57    28    56 1   
    58    29    30 1   
    59    29    57 1   
    60    30    58 1   
    61    30    59 1   
    62    30    60 1   
@<TRIPOS>SUBSTRUCTURE
     1 SX6         1 TEMP              0 ****  ****    0 ROOT
