@<TRIPOS>MOLECULE
SX7
   50    53     1     0     0
SMALL
abcg2


@<TRIPOS>ATOM
      1 O1           5.7350    -1.0320     1.0830 o          1 SX7      -0.623100
      2 C7          -3.9420     2.1910     0.5370 cc         1 SX7      -0.132100
      3 C6          -3.4710     0.9070     0.5220 cd         1 SX7      -0.073400
      4 C1          -5.3720    -0.7170    -2.3110 c3         1 SX7      -0.113100
      5 N1          -5.3080    -0.7300     0.1510 na         1 SX7       0.132800
      6 C5          -4.1880    -0.3280     0.7990 cd         1 SX7      -0.077800
      7 C4          -3.8930    -1.3230     1.7080 cc         1 SX7      -0.219000
      8 C3          -4.9000    -2.2800     1.5210 cc         1 SX7       0.235900
      9 C19          5.0970    -0.3150     0.3180 c          1 SX7       0.627700
     10 N6           5.5330     0.9030    -0.0550 n          1 SX7      -0.401800
     11 C21          6.7350     1.4290     0.5590 c3         1 SX7       0.086800
     12 C20          5.0660     1.6300    -1.2180 c3         1 SX7       0.086800
     13 C17          3.7650    -0.7630    -0.1920 ca         1 SX7      -0.226600
     14 C16          3.5970    -2.0680    -0.6940 ca         1 SX7       0.362000
     15 N5           4.6450    -2.9250    -0.8470 nv         1 SX7      -1.083000
     16 C15          2.3080    -2.4400    -1.1070 ca         1 SX7      -0.203000
     17 C14          1.2360    -1.5830    -0.9840 ca         1 SX7      -0.036000
     18 C18          2.6670     0.0740    -0.0580 ca         1 SX7      -0.030000
     19 C13          1.3820    -0.3020    -0.4410 cp         1 SX7      -0.093000
     20 C10          0.2270     0.5970    -0.2670 cp         1 SX7      -0.096000
     21 C9           0.3710     1.9910    -0.4100 ca         1 SX7       0.362900
     22 N4          -0.5980     2.8790    -0.2520 nb         1 SX7      -0.678000
     23 C11         -1.0380     0.1040     0.0490 ca         1 SX7      -0.022000
     24 C12         -2.0800     1.0050     0.2040 ca         1 SX7      -0.120800
     25 C8          -1.7830     2.3750     0.0420 ca         1 SX7       0.367500
     26 N3          -2.9370     3.0670     0.2450 na         1 SX7      -0.322400
     27 N2          -5.7410    -1.9110     0.5760 nd         1 SX7      -0.525800
     28 H7          -4.9300     2.5570     0.7610 h4         1 SX7       0.219000
     29 H1          -5.8750    -0.2650    -3.1650 hc         1 SX7       0.048700
     30 H1A         -4.3050    -0.5180    -2.4060 hc         1 SX7       0.048700
     31 H1B         -5.5270    -1.7940    -2.3560 hc         1 SX7       0.048700
     32 H4          -3.0870    -1.3330     2.4230 ha         1 SX7       0.147000
     33 H3          -5.0440    -3.2110     2.0460 h4         1 SX7       0.035100
     34 H2          -5.7720     0.9340    -0.9900 h1         1 SX7       0.060700
     35 H2A         -6.9970    -0.3240    -0.9410 h1         1 SX7       0.060700
     36 H21          7.6380     1.0550     0.0700 h1         1 SX7       0.042033
     37 H21A         6.7260     2.5140     0.4740 h1         1 SX7       0.042033
     38 H21B         6.7790     1.1730     1.6140 h1         1 SX7       0.042033
     39 H20          4.5670     2.5600    -0.9380 h1         1 SX7       0.042033
     40 H20A         5.9170     1.8890    -1.8490 h1         1 SX7       0.042033
     41 H20B         4.3890     1.0330    -1.8200 h1         1 SX7       0.042033
     42 HN5          5.4350    -2.7940    -0.2390 hn         1 SX7       0.474000
     43 HN5A         4.4240    -3.8920    -1.0050 hn         1 SX7       0.474000
     44 H15          2.1490    -3.4280    -1.5230 ha         1 SX7       0.115000
     45 H14          0.2650    -1.9200    -1.3230 ha         1 SX7       0.114000
     46 H18          2.8240     1.0490     0.3900 ha         1 SX7       0.116000
     47 H9           1.3430     2.3970    -0.6760 h4         1 SX7       0.018100
     48 H11         -1.2060    -0.9570     0.1940 ha         1 SX7       0.130000
     49 HN3         -3.0460     4.0650     0.2020 hn         1 SX7       0.363000
     50 C2          -5.9260    -0.1420    -1.0200 c3         1 SX7       0.087600
@<TRIPOS>BOND
     1     1     9 2   
     2     2     3 2   
     3     2    26 1   
     4     2    28 1   
     5     3     6 1   
     6     3    24 1   
     7     4    29 1   
     8     4    30 1   
     9     4    31 1   
    10     4    50 1   
    11     5     6 1   
    12     5    27 1   
    13     5    50 1   
    14     6     7 2   
    15     7     8 1   
    16     7    32 1   
    17     8    27 2   
    18     8    33 1   
    19     9    10 1   
    20     9    13 1   
    21    10    11 1   
    22    10    12 1   
    23    11    36 1   
    24    11    37 1   
    25    11    38 1   
    26    12    39 1   
    27    12    40 1   
    28    12    41 1   
    29    13    14 ar  
    30    13    18 ar  
    31    14    15 1   
    32    14    16 ar  
    33    15    42 1   
    34    15    43 1   
    35    16    17 ar  
    36    16    44 1   
    37    17    19 ar  
    38    17    45 1   
    39    18    19 ar  
    40    18    46 1   
    41    19    20 1   
    42    20    21 ar  
    43    20    23 ar  
    44    21    22 ar  
    45    21    47 1   
    46    22    25 ar  
    47    23    24 ar  
    48    23    48 1   
    49    24    25 ar  
    50    25    26 1   
    51    26    49 1   
    52    34    50 1   
    53    35    50 1   
@<TRIPOS>SUBSTRUCTURE
     1 SX7         1 TEMP              0 ****  ****    0 ROOT
