@<TRIPOS>MOLECULE
SX7
   50    53     1     0     0
SMALL
No Charge or Current Charge


@<TRIPOS>ATOM
      1 O1           6.0960    -0.9830     1.1870 o          1 SX7      -0.623100
      2 C7          -3.9870     1.8870    -0.3150 cc         1 SX7      -0.132100
      3 C6          -3.3730     0.6600    -0.0890 cd         1 SX7      -0.073400
      4 C1          -6.7600     0.3170    -1.5840 c3         1 SX7      -0.113100
      5 N1          -5.5550    -0.7040     0.3920 na         1 SX7       0.132800
      6 C5          -4.1510    -0.5010     0.3310 cd         1 SX7      -0.077800
      7 C4          -3.6190    -1.6630     0.8050 cc         1 SX7      -0.219000
      8 C3          -4.6920    -2.4990     1.1240 cc         1 SX7       0.235900
      9 C19          5.3690    -0.3060     0.4660 c          1 SX7       0.627700
     10 N6           5.7010     1.0390     0.1770 n          1 SX7      -0.401800
     11 C21          6.8750     1.6580     0.8300 c3         1 SX7       0.086800
     12 C20          5.2370     1.6890    -1.0720 c3         1 SX7       0.086800
     13 C17          4.0490    -0.8450    -0.0330 ca         1 SX7      -0.226600
     14 C16          3.9260    -2.1810    -0.4580 ca         1 SX7       0.362000
     15 N5           4.9940    -3.0300    -0.4620 nv         1 SX7      -1.083000
     16 C15          2.6930    -2.6650    -0.9120 ca         1 SX7      -0.203000
     17 C14          1.5640    -1.8330    -0.9350 ca         1 SX7      -0.036000
     18 C18          2.9010    -0.0200    -0.0380 ca         1 SX7      -0.030000
     19 C13          1.6440    -0.4920    -0.4920 cp         1 SX7      -0.093000
     20 C10          0.4420     0.4030    -0.4990 cp         1 SX7      -0.096000
     21 C9           0.5570     1.7990    -0.7650 ca         1 SX7       0.362900
     22 N4          -0.4940     2.6550    -0.8150 nb         1 SX7      -0.678000
     23 C11         -0.8610    -0.1010    -0.2520 ca         1 SX7      -0.022000
     24 C12         -1.9310     0.8100    -0.2720 ca         1 SX7      -0.120800
     25 C8          -1.7100     2.1370    -0.5730 ca         1 SX7       0.367500
     26 N3          -2.9290     2.7720    -0.5990 na         1 SX7      -0.322400
     27 N2          -5.8720    -1.9690     0.8870 nd         1 SX7      -0.525800
     28 H7          -5.0120     2.2290    -0.2700 h4         1 SX7       0.219000
     29 H1          -7.5910     0.9800    -1.8500 hc         1 SX7       0.048700
     30 H1A         -5.8390     0.7310    -2.0090 hc         1 SX7       0.048700
     31 H1B         -6.9400    -0.6600    -2.0490 hc         1 SX7       0.048700
     32 H4          -2.5880    -1.9290     0.9780 ha         1 SX7       0.147000
     33 H3          -4.6420    -3.4970     1.5400 h4         1 SX7       0.035100
     34 H2          -6.5750     1.1450     0.4390 h1         1 SX7       0.060700
     35 H2A         -7.6030    -0.2640     0.3080 h1         1 SX7       0.060700
     36 H21          7.7970     1.2230     0.4250 h1         1 SX7       0.042033
     37 H21A         6.8800     2.7410     0.6530 h1         1 SX7       0.042033
     38 H21B         6.8380     1.4810     1.9130 h1         1 SX7       0.042033
     39 H20          4.4150     2.3810    -0.8480 h1         1 SX7       0.042033
     40 H20A         6.0580     2.2540    -1.5300 h1         1 SX7       0.042033
     41 H20B         4.8940     0.9380    -1.7950 h1         1 SX7       0.042033
     42 HN5          5.7870    -2.7570     0.1210 hn         1 SX7       0.474000
     43 HN5A         4.8240    -4.0300    -0.5460 hn         1 SX7       0.474000
     44 H15          2.6040    -3.6910    -1.2570 ha         1 SX7       0.115000
     45 H14          0.6230    -2.2320    -1.3070 ha         1 SX7       0.114000
     46 H18          2.9730     0.9940     0.3470 ha         1 SX7       0.116000
     47 H9           1.5300     2.2400    -0.9750 h4         1 SX7       0.018100
     48 H11         -1.0040    -1.1570    -0.0710 ha         1 SX7       0.130000
     49 HN3         -3.0270     3.7590    -0.7990 hn         1 SX7       0.363000
     50 C2          -6.6610     0.1700    -0.0500 c3         1 SX7       0.087600
@<TRIPOS>BOND
     1     1     9 2   
     2     2     3 2   
     3     2    26 1   
     4     2    28 1   
     5     3     6 1   
     6     3    24 1   
     7     4    29 1   
     8     4    30 1   
     9     4    31 1   
    10     4    50 1   
    11     5     6 1   
    12     5    27 1   
    13     5    50 1   
    14     6     7 2   
    15     7     8 1   
    16     7    32 1   
    17     8    27 2   
    18     8    33 1   
    19     9    10 1   
    20     9    13 1   
    21    10    11 1   
    22    10    12 1   
    23    11    36 1   
    24    11    37 1   
    25    11    38 1   
    26    12    39 1   
    27    12    40 1   
    28    12    41 1   
    29    13    14 ar  
    30    13    18 ar  
    31    14    15 1   
    32    14    16 ar  
    33    15    42 1   
    34    15    43 1   
    35    16    17 ar  
    36    16    44 1   
    37    17    19 ar  
    38    17    45 1   
    39    18    19 ar  
    40    18    46 1   
    41    19    20 1   
    42    20    21 ar  
    43    20    23 ar  
    44    21    22 ar  
    45    21    47 1   
    46    22    25 ar  
    47    23    24 ar  
    48    23    48 1   
    49    24    25 ar  
    50    25    26 1   
    51    26    49 1   
    52    34    50 1   
    53    35    50 1   
@<TRIPOS>SUBSTRUCTURE
     1 SX7         1 TEMP              0 ****  ****    0 ROOT
