@<TRIPOS>MOLECULE
SX8
   39    43     1     0     0
SMALL
No Charge or Current Charge


@<TRIPOS>ATOM
      1 C7          16.1930    16.7100   138.7360 cc         1 SX8      -0.024000
      2 C6          15.4820    15.7470   139.4120 cd         1 SX8      -0.143000
      3 N1          13.6570    12.2650   141.1200 na         1 SX8       0.125800
      4 C5          15.7380    14.3510   139.1050 cd         1 SX8       0.435500
      5 C4          15.1360    11.9430   139.6370 cd         1 SX8       0.297900
      6 C3          14.9980    13.3340   139.8090 cd         1 SX8      -0.297500
      7 C2          14.0450    13.5560   140.7660 cc         1 SX8      -0.123000
      8 N2          14.3230    11.2680   140.4290 nc         1 SX8      -0.522800
      9 N7          16.6280    13.9030   138.2050 nc         1 SX8      -0.459800
     10 N6          17.3390    14.9260   137.5980 na         1 SX8       0.133000
     11 C8          17.1470    16.2590   137.7900 cc         1 SX8      -0.140000
     12 C9          18.3300    14.7940   136.6590 cc         1 SX8       0.331700
     13 N4          18.6680    15.9980   136.2200 nd         1 SX8      -0.327700
     14 N3          17.9530    16.9260   136.9760 nd         1 SX8      -0.077000
     15 S1          18.7970    13.2790   135.8700 ss         1 SX8       0.053800
     16 C10         19.1480    12.4690   137.4370 ca         1 SX8      -0.123000
     17 C18         18.5370    11.2360   137.7230 ca         1 SX8      -0.052000
     18 C17         18.7660    10.6020   138.9590 ca         1 SX8      -0.091000
     19 C13         19.6280    11.1880   139.9220 ca         1 SX8       0.275000
     20 C12         20.2500    12.4100   139.6100 ca         1 SX8      -0.080000
     21 C11         20.0180    13.0500   138.3800 ca         1 SX8      -0.080000
     22 C16         18.1330     9.3810   139.2520 ca         1 SX8      -0.056000
     23 C15         18.3830     8.7860   140.4980 ca         1 SX8      -0.166000
     24 C14         19.2500     9.4250   141.3980 ca         1 SX8       0.355900
     25 N5          19.8630    10.6000   141.1200 nb         1 SX8      -0.660000
     26 H7          16.0380    17.7720   138.9040 ha         1 SX8       0.152000
     27 H6          14.7460    16.0430   140.1480 ha         1 SX8       0.131000
     28 H1          13.1040    11.3020   142.9100 h1         1 SX8       0.061033
     29 H1A         12.2230    12.8200   142.5660 h1         1 SX8       0.061033
     30 H1B         11.8400    11.3360   141.6430 h1         1 SX8       0.061033
     31 H4          15.7950    11.4050   138.9660 h4         1 SX8       0.057100
     32 H2          13.6230    14.4480   141.2120 h4         1 SX8       0.156000
     33 H18         17.8680    10.7850   136.9940 ha         1 SX8       0.127000
     34 H12         20.9180    12.8690   140.3340 ha         1 SX8       0.135000
     35 H11         20.5140    13.9950   138.1670 ha         1 SX8       0.130000
     36 H16         17.4650     8.9070   138.5370 ha         1 SX8       0.121000
     37 H15         17.9150     7.8440   140.7680 ha         1 SX8       0.125000
     38 H14         19.4620     8.9850   142.3710 h4         1 SX8       0.020100
     39 C1          12.6430    11.9090   142.1220 c3         1 SX8       0.074900
@<TRIPOS>BOND
     1     1     2 2   
     2     1    11 1   
     3     1    26 1   
     4     2     4 1   
     5     2    27 1   
     6     3     7 1   
     7     3     8 1   
     8     3    39 1   
     9     4     6 1   
    10     4     9 2   
    11     5     6 1   
    12     5     8 2   
    13     5    31 1   
    14     6     7 2   
    15     7    32 1   
    16     9    10 1   
    17    10    11 1   
    18    10    12 1   
    19    11    14 2   
    20    12    13 2   
    21    12    15 1   
    22    13    14 1   
    23    15    16 1   
    24    16    17 ar  
    25    16    21 ar  
    26    17    18 ar  
    27    17    33 1   
    28    18    19 ar  
    29    18    22 ar  
    30    19    20 ar  
    31    19    25 ar  
    32    20    21 ar  
    33    20    34 1   
    34    21    35 1   
    35    22    23 ar  
    36    22    36 1   
    37    23    24 ar  
    38    23    37 1   
    39    24    25 ar  
    40    24    38 1   
    41    28    39 1   
    42    29    39 1   
    43    30    39 1   
@<TRIPOS>SUBSTRUCTURE
     1 SX8         1 TEMP              0 ****  ****    0 ROOT
