@<TRIPOS>MOLECULE
SX8
   39    43     1     0     0
SMALL
abcg2


@<TRIPOS>ATOM
      1 C7          16.1510    16.8350   138.6280 cc         1 SX8      -0.024000
      2 C6          15.4570    15.9070   139.3340 cd         1 SX8      -0.143000
      3 N1          13.5720    12.4620   141.2290 na         1 SX8       0.125800
      4 C5          15.6820    14.5020   139.1170 cd         1 SX8       0.435500
      5 C4          15.2340    12.1080   139.9430 cd         1 SX8       0.297900
      6 C3          14.9700    13.4980   139.8870 cd         1 SX8      -0.297500
      7 C2          13.8860    13.6730   140.7400 cc         1 SX8      -0.123000
      8 N2          14.3880    11.4910   140.7560 nc         1 SX8      -0.522800
      9 N7          16.5430    14.0500   138.2320 nc         1 SX8      -0.459800
     10 N6          17.2230    14.9940   137.5620 na         1 SX8       0.133000
     11 C8          17.0950    16.3620   137.6880 cc         1 SX8      -0.140000
     12 C9          18.2040    14.8010   136.6240 cc         1 SX8       0.331700
     13 N4          18.6310    15.9810   136.2090 nd         1 SX8      -0.327700
     14 N3          17.9360    16.9620   136.8580 nd         1 SX8      -0.077000
     15 S1          18.7240    13.2540   136.0180 ss         1 SX8       0.053800
     16 C10         19.0710    12.3950   137.5450 ca         1 SX8      -0.123000
     17 C18         18.6380    11.1010   137.6810 ca         1 SX8      -0.052000
     18 C17         18.9120    10.3830   138.8670 ca         1 SX8      -0.091000
     19 C13         19.6240    11.0200   139.9240 ca         1 SX8       0.275000
     20 C12         20.0570    12.3560   139.7460 ca         1 SX8      -0.080000
     21 C11         19.7970    13.0270   138.5820 ca         1 SX8      -0.080000
     22 C16         18.4760     9.0540   139.0730 ca         1 SX8      -0.056000
     23 C15         18.7570     8.4380   140.2630 ca         1 SX8      -0.166000
     24 C14         19.4770     9.1500   141.2470 ca         1 SX8       0.355900
     25 N5          19.8980    10.3870   141.0980 nb         1 SX8      -0.660000
     26 H7          16.0110    17.8980   138.7640 ha         1 SX8       0.152000
     27 H6          14.7330    16.2130   140.0760 ha         1 SX8       0.131000
     28 H1          12.9160    11.6620   143.0420 h1         1 SX8       0.061033
     29 H1A         11.9840    13.0450   142.4230 h1         1 SX8       0.061033
     30 H1B         11.8030    11.4430   141.6700 h1         1 SX8       0.061033
     31 H4          16.0090    11.5560   139.4350 h4         1 SX8       0.057100
     32 H2          13.3290    14.5510   141.0180 h4         1 SX8       0.156000
     33 H18         18.0620    10.6240   136.8970 ha         1 SX8       0.127000
     34 H12         20.6020    12.8320   140.5510 ha         1 SX8       0.135000
     35 H11         20.1380    14.0450   138.4530 ha         1 SX8       0.130000
     36 H16         17.9260     8.5460   138.2910 ha         1 SX8       0.121000
     37 H15         18.4400     7.4220   140.4610 ha         1 SX8       0.125000
     38 H14         19.7070     8.6680   142.1920 h4         1 SX8       0.020100
     39 C1          12.5010    12.1290   142.1490 c3         1 SX8       0.074900
@<TRIPOS>BOND
     1     1     2 2   
     2     1    11 1   
     3     1    26 1   
     4     2     4 1   
     5     2    27 1   
     6     3     7 1   
     7     3     8 1   
     8     3    39 1   
     9     4     6 1   
    10     4     9 2   
    11     5     6 1   
    12     5     8 2   
    13     5    31 1   
    14     6     7 2   
    15     7    32 1   
    16     9    10 1   
    17    10    11 1   
    18    10    12 1   
    19    11    14 2   
    20    12    13 2   
    21    12    15 1   
    22    13    14 1   
    23    15    16 1   
    24    16    17 ar  
    25    16    21 ar  
    26    17    18 ar  
    27    17    33 1   
    28    18    19 ar  
    29    18    22 ar  
    30    19    20 ar  
    31    19    25 ar  
    32    20    21 ar  
    33    20    34 1   
    34    21    35 1   
    35    22    23 ar  
    36    22    36 1   
    37    23    24 ar  
    38    23    37 1   
    39    24    25 ar  
    40    24    38 1   
    41    28    39 1   
    42    29    39 1   
    43    30    39 1   
@<TRIPOS>SUBSTRUCTURE
     1 SX8         1 TEMP              0 ****  ****    0 ROOT
