@<TRIPOS>MOLECULE
SX9
   38    39     1     0     0
SMALL
abcg2


@<TRIPOS>ATOM
      1 N1           2.6170    -5.9970   -56.9720 nh         1 SX9      -0.702400
      2 C4           2.0190    -5.0020   -56.2430 c2         1 SX9       0.035000
      3 C5           2.5830    -4.2470   -55.2840 c2         1 SX9      -0.339200
      4 C6           1.8020    -3.2350   -54.4890 c3         1 SX9       0.031100
      5 C7           1.6640    -3.6100   -53.0280 ca         1 SX9      -0.075300
      6 C8           0.8160    -4.6500   -52.6410 ca         1 SX9      -0.106500
      7 C10          1.4280    -4.3440   -50.3280 ca         1 SX9      -0.114000
      8 C13          1.9870    -6.5350   -58.1610 c6         1 SX9       0.213800
      9 N            3.6140    -8.3640   -58.0010 n          1 SX9      -0.416800
     10 C            3.0470   -10.7350   -58.0570 c3         1 SX9      -0.173100
     11 O            5.2710    -9.8970   -57.7560 o          1 SX9      -0.612100
     12 C1           4.0740    -9.6340   -57.9250 c          1 SX9       0.602100
     13 C11          2.2800    -3.3100   -50.7000 ca         1 SX9      -0.110500
     14 C12          2.3930    -2.9460   -52.0410 ca         1 SX9      -0.106500
     15 C14          2.1970    -8.0430   -58.2260 c6         1 SX9       0.091500
     16 C2           4.5270    -7.2320   -57.8740 c6         1 SX9       0.091500
     17 C3           4.0380    -6.2550   -56.8120 c6         1 SX9       0.213800
     18 C9           0.6940    -5.0130   -51.3050 ca         1 SX9      -0.110500
     19 H1           0.9710    -4.8560   -56.4850 h4         1 SX9       0.173000
     20 H2           3.6250    -4.3770   -55.0150 ha         1 SX9       0.177000
     21 H3           2.2810    -2.2520   -54.5470 hc         1 SX9       0.043200
     22 H4           0.8050    -3.1290   -54.9270 hc         1 SX9       0.043200
     23 H5           0.2470    -5.1790   -53.3980 ha         1 SX9       0.109000
     24 H6           1.3350    -4.6270   -49.2860 ha         1 SX9       0.110000
     25 H7           2.3690    -6.0590   -59.0730 h1         1 SX9       0.048200
     26 H8           0.9180    -6.3350   -58.1160 h1         1 SX9       0.048200
     27 H9           3.5560   -11.6930   -58.0030 hc         1 SX9       0.061033
     28 H10          2.3050   -10.6740   -57.2590 hc         1 SX9       0.061033
     29 H11          2.5110   -10.6620   -59.0060 hc         1 SX9       0.061033
     30 H12          2.8550    -2.7830   -49.9490 ha         1 SX9       0.109500
     31 H13          3.0540    -2.1360   -52.3250 ha         1 SX9       0.109000
     32 H14          1.8690    -8.4140   -59.2010 h1         1 SX9       0.056950
     33 H15          1.5890    -8.5200   -57.4560 h1         1 SX9       0.056950
     34 H16          5.5050    -7.6150   -57.6040 h1         1 SX9       0.056950
     35 H17          4.6200    -6.7280   -58.8390 h1         1 SX9       0.056950
     36 H18          4.2240    -6.6590   -55.8110 h1         1 SX9       0.048200
     37 H19          4.6150    -5.3240   -56.8980 h1         1 SX9       0.048200
     38 H20          0.0250    -5.8180   -51.0240 ha         1 SX9       0.109500
@<TRIPOS>BOND
     1     1     2 1   
     2     1     8 1   
     3     1    17 1   
     4     2     3 2   
     5     2    19 1   
     6     3     4 1   
     7     3    20 1   
     8     4     5 1   
     9     4    21 1   
    10     4    22 1   
    11     5     6 ar  
    12     5    14 ar  
    13     6    18 ar  
    14     6    23 1   
    15     7    13 ar  
    16     7    18 ar  
    17     7    24 1   
    18     8    15 1   
    19     8    25 1   
    20     8    26 1   
    21     9    12 1   
    22     9    15 1   
    23     9    16 1   
    24    10    12 1   
    25    10    27 1   
    26    10    28 1   
    27    10    29 1   
    28    11    12 2   
    29    13    14 ar  
    30    13    30 1   
    31    14    31 1   
    32    15    32 1   
    33    15    33 1   
    34    16    17 1   
    35    16    34 1   
    36    16    35 1   
    37    17    36 1   
    38    17    37 1   
    39    18    38 1   
@<TRIPOS>SUBSTRUCTURE
     1 SX9         1 TEMP              0 ****  ****    0 ROOT
