@<TRIPOS>MOLECULE
SX9
   38    39     1     0     0
SMALL
No Charge or Current Charge


@<TRIPOS>ATOM
      1 N1           2.5780    -5.8880   -56.9880 nh         1 SX9      -0.702400
      2 C4           1.9430    -4.8490   -56.3090 c2         1 SX9       0.035000
      3 C5           2.4590    -4.2490   -55.2260 c2         1 SX9      -0.339200
      4 C6           1.7930    -3.1260   -54.4580 c3         1 SX9       0.031100
      5 C7           1.6340    -3.4630   -52.9820 ca         1 SX9      -0.075300
      6 C8           0.5440    -4.2430   -52.5480 ca         1 SX9      -0.106500
      7 C10          1.3340    -4.0970   -50.2500 ca         1 SX9      -0.114000
      8 C13          1.8120    -6.7640   -57.9270 c6         1 SX9       0.213800
      9 N            3.7210    -8.4800   -58.0460 n          1 SX9      -0.416800
     10 C            3.3510   -10.9110   -58.6670 c3         1 SX9      -0.173100
     11 O            5.4890    -9.8410   -58.5830 o          1 SX9      -0.612100
     12 C1           4.2800    -9.7160   -58.4380 c          1 SX9       0.602100
     13 C11          2.4250    -3.3210   -50.6760 ca         1 SX9      -0.110500
     14 C12          2.5750    -3.0050   -52.0380 ca         1 SX9      -0.106500
     15 C14          2.2500    -8.2590   -57.8970 c6         1 SX9       0.091500
     16 C2           4.5760    -7.2960   -57.7450 c6         1 SX9       0.091500
     17 C3           3.9710    -6.3410   -56.6750 c6         1 SX9       0.213800
     18 C9           0.3940    -4.5580   -51.1860 ca         1 SX9      -0.110500
     19 H1           0.9710    -4.5540   -56.7160 h4         1 SX9       0.173000
     20 H2           3.4200    -4.5490   -54.8110 ha         1 SX9       0.177000
     21 H3           2.3850    -2.2090   -54.5700 hc         1 SX9       0.043200
     22 H4           0.8120    -2.8960   -54.8920 hc         1 SX9       0.043200
     23 H5          -0.1860    -4.6060   -53.2680 ha         1 SX9       0.109000
     24 H6           1.2180    -4.3410   -49.1960 ha         1 SX9       0.110000
     25 H7           1.9130    -6.3770   -58.9510 h1         1 SX9       0.048200
     26 H8           0.7410    -6.7280   -57.6800 h1         1 SX9       0.048200
     27 H9           3.9020   -11.8370   -58.8680 hc         1 SX9       0.061033
     28 H10          2.6730   -11.0200   -57.8140 hc         1 SX9       0.061033
     29 H11          2.6700   -10.6780   -59.4930 hc         1 SX9       0.061033
     30 H12          3.1540    -2.9640   -49.9520 ha         1 SX9       0.109500
     31 H13          3.4240    -2.4060   -52.3600 ha         1 SX9       0.109000
     32 H14          1.7080    -8.7820   -58.6960 h1         1 SX9       0.056950
     33 H15          1.9290    -8.6990   -56.9420 h1         1 SX9       0.056950
     34 H16          5.5630    -7.6250   -57.3910 h1         1 SX9       0.056950
     35 H17          4.7360    -6.7340   -58.6750 h1         1 SX9       0.056950
     36 H18          3.9830    -6.8460   -55.6990 h1         1 SX9       0.048200
     37 H19          4.6360    -5.4690   -56.5960 h1         1 SX9       0.048200
     38 H20         -0.4500    -5.1610   -50.8580 ha         1 SX9       0.109500
@<TRIPOS>BOND
     1     1     2 1   
     2     1     8 1   
     3     1    17 1   
     4     2     3 2   
     5     2    19 1   
     6     3     4 1   
     7     3    20 1   
     8     4     5 1   
     9     4    21 1   
    10     4    22 1   
    11     5     6 ar  
    12     5    14 ar  
    13     6    18 ar  
    14     6    23 1   
    15     7    13 ar  
    16     7    18 ar  
    17     7    24 1   
    18     8    15 1   
    19     8    25 1   
    20     8    26 1   
    21     9    12 1   
    22     9    15 1   
    23     9    16 1   
    24    10    12 1   
    25    10    27 1   
    26    10    28 1   
    27    10    29 1   
    28    11    12 2   
    29    13    14 ar  
    30    13    30 1   
    31    14    31 1   
    32    15    32 1   
    33    15    33 1   
    34    16    17 1   
    35    16    34 1   
    36    16    35 1   
    37    17    36 1   
    38    17    37 1   
    39    18    38 1   
@<TRIPOS>SUBSTRUCTURE
     1 SX9         1 TEMP              0 ****  ****    0 ROOT
