@<TRIPOS>MOLECULE
SXE
   34    33     1     0     0
SMALL
bcc


@<TRIPOS>ATOM
      1 N           25.8210    12.3480    13.7930 n8         1 SXE      -0.872800
      2 CA          26.9480    13.0030    13.1450 c3         1 SXE       0.000500
      3 C           28.2700    12.4590    13.7390 c          1 SXE       0.945600
      4 O           29.1170    12.0150    12.9440 o          1 SXE      -0.823300
      5 CB          26.8790    14.5140    13.3310 c3         1 SXE       0.179400
      6 OG          27.9560    15.1490    12.6270 os         1 SXE      -0.576200
      7 O1          29.7800    15.8600    14.3850 o          1 SXE      -0.767300
      8 P1          28.8340    16.2910    13.3320 p5         1 SXE       1.589400
      9 N1          27.7410    17.4190    13.8230 n7         1 SXE      -1.000300
     10 C1          27.7970    18.1640    15.0780 c3         1 SXE       0.261500
     11 C3          27.3900    19.6120    14.8390 c3         1 SXE      -0.108100
     12 C2          26.9230    17.5120    16.1430 c3         1 SXE      -0.108100
     13 O2          29.6590    16.8170    12.0630 os         1 SXE      -0.552200
     14 C4          29.0470    17.5450    10.9920 c3         1 SXE       0.199400
     15 C5          29.4050    19.0120    11.0730 c3         1 SXE      -0.120100
     16 OXT         28.3610    12.5310    14.9820 o          1 SXE      -0.823300
     17 HN1         25.9040    12.4790    14.7940 hn         1 SXE       0.316800
     18 HN2         24.9500    12.7840    13.5150 hn         1 SXE       0.316800
     19 HA          26.9090    12.7780    12.0750 h1         1 SXE       0.060700
     20 HBC1        26.9100    14.7450    14.4000 h1         1 SXE       0.007200
     21 HBC2        25.9390    14.9050    12.9320 h1         1 SXE       0.007200
     22 H1          26.8760    17.5110    13.3070 hn         1 SXE       0.405800
     23 HB          28.8330    18.1490    15.4190 h1         1 SXE       0.072700
     24 H3C1        26.3600    19.6720    14.4790 hc         1 SXE       0.034533
     25 H3C2        28.0360    20.0880    14.1010 hc         1 SXE       0.034533
     26 H3C3        27.4500    20.1860    15.7630 hc         1 SXE       0.034533
     27 H2C1        27.2350    16.4830    16.3280 hc         1 SXE       0.034533
     28 H2C2        25.8780    17.4980    15.8260 hc         1 SXE       0.034533
     29 H2C3        26.9800    18.0590    17.0850 hc         1 SXE       0.034533
     30 H4C1        27.9620    17.4170    10.9890 h1         1 SXE       0.034200
     31 H4C2        29.4210    17.1070    10.0650 h1         1 SXE       0.034200
     32 H5C1        30.4850    19.1580    11.0590 hc         1 SXE       0.037367
     33 H5C2        29.0060    19.4670    11.9800 hc         1 SXE       0.037367
     34 H5C3        28.9840    19.5410    10.2180 hc         1 SXE       0.037367
@<TRIPOS>BOND
     1     1     2 1   
     2     1    17 1   
     3     1    18 1   
     4     2     3 1   
     5     2     5 1   
     6     2    19 1   
     7     3     4 1   
     8     3    16 1   
     9     5     6 1   
    10     5    20 1   
    11     5    21 1   
    12     6     8 1   
    13     7     8 2   
    14     8     9 1   
    15     8    13 1   
    16     9    10 1   
    17     9    22 1   
    18    10    11 1   
    19    10    12 1   
    20    10    23 1   
    21    11    24 1   
    22    11    25 1   
    23    11    26 1   
    24    12    27 1   
    25    12    28 1   
    26    12    29 1   
    27    13    14 1   
    28    14    15 1   
    29    14    30 1   
    30    14    31 1   
    31    15    32 1   
    32    15    33 1   
    33    15    34 1   
@<TRIPOS>SUBSTRUCTURE
     1 SXE         1 TEMP              0 ****  ****    0 ROOT
