@<TRIPOS>MOLECULE
SXE
   34    33     1     0     0
SMALL
No Charge or Current Charge


@<TRIPOS>ATOM
      1 N           26.3790    12.1030    12.7060 n8         1 SXE      -0.983200
      2 CA          27.2930    13.2750    13.0310 c3         1 SXE       0.000500
      3 C           28.7740    12.8920    13.4250 c          1 SXE       0.735000
      4 O           29.6680    13.1200    12.6210 o          1 SXE      -0.718000
      5 CB          26.6630    14.2060    14.1210 c3         1 SXE       0.202600
      6 OG          26.7610    15.5980    13.7720 os         1 SXE      -0.599400
      7 O1          29.3100    16.1110    14.4680 o          1 SXE      -0.538000
      8 P1          28.1650    16.3430    13.5530 p5         1 SXE       1.360100
      9 N1          27.5000    17.8270    13.6750 n7         1 SXE      -1.055500
     10 C1          27.6230    18.6650    14.8670 c3         1 SXE       0.261500
     11 C3          27.0590    20.0570    14.5300 c3         1 SXE      -0.108100
     12 C2          26.8840    18.0260    16.0640 c3         1 SXE      -0.108100
     13 O2          28.3960    16.2190    11.9620 os         1 SXE      -0.575400
     14 C4          28.7130    17.3240    11.0990 c3         1 SXE       0.222600
     15 C5          30.0600    17.9520    11.5170 c3         1 SXE      -0.120100
     16 OXT         28.9600    12.2860    14.4740 o          1 SXE      -0.718000
     17 HN1         26.3140    11.4880    13.5270 hn         1 SXE       0.372000
     18 HN2         25.4190    12.4430    12.5710 hn         1 SXE       0.372000
     19 HA          27.3620    13.8570    12.1030 h1         1 SXE       0.060700
     20 HBC1        27.1320    14.0250    15.0960 h1         1 SXE       0.007200
     21 HBC2        25.6010    13.9560    14.2340 h1         1 SXE       0.007200
     22 H1          26.5450    17.4810    13.6000 hn         1 SXE       0.461000
     23 HB          28.6820    18.7930    15.1370 h1         1 SXE       0.072700
     24 H3C1        25.9980    19.9970    14.2610 hc         1 SXE       0.034533
     25 H3C2        27.6050    20.5000    13.6890 hc         1 SXE       0.034533
     26 H3C3        27.1590    20.7300    15.3900 hc         1 SXE       0.034533
     27 H2C1        27.3390    17.0710    16.3490 hc         1 SXE       0.034533
     28 H2C2        25.8280    17.8510    15.8270 hc         1 SXE       0.034533
     29 H2C3        26.9320    18.6880    16.9370 hc         1 SXE       0.034533
     30 H4C1        27.9230    18.0870    11.1150 h1         1 SXE       0.034200
     31 H4C2        28.8000    16.9670    10.0640 h1         1 SXE       0.034200
     32 H5C1        30.8430    17.1860    11.5750 hc         1 SXE       0.037367
     33 H5C2        29.9870    18.4570    12.4870 hc         1 SXE       0.037367
     34 H5C3        30.3690    18.6980    10.7760 hc         1 SXE       0.037367
@<TRIPOS>BOND
     1     1     2 1   
     2     1    17 1   
     3     1    18 1   
     4     2     3 1   
     5     2     5 1   
     6     2    19 1   
     7     3     4 1   
     8     3    16 1   
     9     5     6 1   
    10     5    20 1   
    11     5    21 1   
    12     6     8 1   
    13     7     8 2   
    14     8     9 1   
    15     8    13 1   
    16     9    10 1   
    17     9    22 1   
    18    10    11 1   
    19    10    12 1   
    20    10    23 1   
    21    11    24 1   
    22    11    25 1   
    23    11    26 1   
    24    12    27 1   
    25    12    28 1   
    26    12    29 1   
    27    13    14 1   
    28    14    15 1   
    29    14    30 1   
    30    14    31 1   
    31    15    32 1   
    32    15    33 1   
    33    15    34 1   
@<TRIPOS>SUBSTRUCTURE
     1 SXE         1 TEMP              0 ****  ****    0 ROOT
