@<TRIPOS>MOLECULE
SXG
   32    33     1     0     0
SMALL
No Charge or Current Charge


@<TRIPOS>ATOM
      1 N           32.7340    -1.1360    15.2550 n8         1 SXG      -1.036100
      2 C           33.2130    -1.3390    12.6400 ca         1 SXG      -0.308500
      3 O           30.9530    -0.3880    13.7850 o          1 SXG      -0.520500
      4 C1          34.1900    -2.3510    12.5420 ca         1 SXG       0.253000
      5 C10         34.3100    -0.1560    10.7950 ca         1 SXG       0.124000
      6 C11         33.2900    -0.2340    11.7630 ca         1 SXG       0.253000
      7 C2          35.2120    -2.2710    11.5770 ca         1 SXG       0.124000
      8 C3          35.2770    -1.1810    10.6840 ca         1 SXG       0.249000
      9 C4          35.4170    -3.1860     8.1580 ca         1 SXG      -0.376500
     10 C5          34.0190    -3.3630     8.2780 ca         1 SXG       0.270000
     11 C6          33.4630    -4.6550     8.3360 ca         1 SXG       0.078000
     12 C7          34.2970    -5.7820     8.2790 ca         1 SXG       0.199000
     13 C8          35.6870    -5.6220     8.1760 ca         1 SXG       0.078000
     14 C9          36.2470    -4.3310     8.1210 ca         1 SXG       0.270000
     15 F           34.1770    -3.4150    13.3780 f          1 SXG      -0.116000
     16 F1          36.1320    -3.2660    11.4960 f          1 SXG      -0.134500
     17 F2          33.1840    -2.3050     8.3760 f          1 SXG      -0.120500
     18 F3          32.1230    -4.8120     8.4560 f          1 SXG      -0.127000
     19 F4          33.7610    -7.0240     8.3370 f          1 SXG      -0.117000
     20 F5          36.4910    -6.7120     8.1400 f          1 SXG      -0.127000
     21 F6          37.5930    -4.2230     8.0550 f          1 SXG      -0.120500
     22 F7          34.3690     0.9310     9.9860 f          1 SXG      -0.134500
     23 F8          32.3960     0.7790    11.8280 f          1 SXG      -0.116000
     24 N1          36.2950    -1.1300     9.7110 nu         1 SXG      -0.901100
     25 O1          31.5190    -2.8560    14.0630 o          1 SXG      -0.520500
     26 O2          37.4930    -1.5680     7.6150 o          1 SXG      -0.496500
     27 O3          35.1370    -0.5770     7.5860 o          1 SXG      -0.496500
     28 S           31.9300    -1.4680    13.8800 sy         1 SXG       1.166600
     29 S1          36.1140    -1.5380     8.0960 sy         1 SXG       1.192600
     30 H1          32.1450    -0.3960    15.6330 hn         1 SXG       0.493000
     31 H2          32.4550    -1.9350    15.8210 hn         1 SXG       0.493000
     32 H3          37.1430    -1.6320     9.9530 hn         1 SXG       0.525000
@<TRIPOS>BOND
     1     1    28 1   
     2     1    30 1   
     3     1    31 1   
     4     2     4 ar  
     5     2     6 ar  
     6     2    28 1   
     7     3    28 2   
     8     4     7 ar  
     9     4    15 1   
    10     5     6 ar  
    11     5     8 ar  
    12     5    22 1   
    13     6    23 1   
    14     7     8 ar  
    15     7    16 1   
    16     8    24 1   
    17     9    10 ar  
    18     9    14 ar  
    19     9    29 1   
    20    10    11 ar  
    21    10    17 1   
    22    11    12 ar  
    23    11    18 1   
    24    12    13 ar  
    25    12    19 1   
    26    13    14 ar  
    27    13    20 1   
    28    14    21 1   
    29    24    29 1   
    30    24    32 1   
    31    25    28 2   
    32    26    29 2   
    33    27    29 2   
@<TRIPOS>SUBSTRUCTURE
     1 SXG         1 TEMP              0 ****  ****    0 ROOT
