@<TRIPOS>MOLECULE
SXG
   32    33     1     0     0
SMALL
abcg2


@<TRIPOS>ATOM
      1 N           32.8320    -1.4350    15.3190 n8         1 SXG      -1.036100
      2 C           33.2120    -1.1470    12.7270 ca         1 SXG      -0.308500
      3 O           31.2760     0.1030    13.9790 o          1 SXG      -0.520500
      4 C1          33.9520    -2.3020    12.5020 ca         1 SXG       0.253000
      5 C10         34.4680    -0.0670    10.9800 ca         1 SXG       0.124000
      6 C11         33.4830    -0.0280    11.9540 ca         1 SXG       0.253000
      7 C2          34.9220    -2.3400    11.5240 ca         1 SXG       0.124000
      8 C3          35.1920    -1.2240    10.7430 ca         1 SXG       0.249000
      9 C4          35.2380    -3.2400     8.1570 ca         1 SXG      -0.376500
     10 C5          33.9370    -3.6480     7.8880 ca         1 SXG       0.270000
     11 C6          33.6160    -4.9950     7.8620 ca         1 SXG       0.078000
     12 C7          34.5890    -5.9450     8.0980 ca         1 SXG       0.199000
     13 C8          35.8900    -5.5560     8.3690 ca         1 SXG       0.078000
     14 C9          36.2020    -4.2150     8.3910 ca         1 SXG       0.270000
     15 F           33.7400    -3.3890    13.2250 f          1 SXG      -0.116000
     16 F1          35.6120    -3.4560    11.3310 f          1 SXG      -0.134500
     17 F2          32.9620    -2.7920     7.6520 f          1 SXG      -0.120500
     18 F3          32.3740    -5.3740     7.6020 f          1 SXG      -0.127000
     19 F4          34.2780    -7.2250     8.0720 f          1 SXG      -0.117000
     20 F5          36.8180    -6.4690     8.6060 f          1 SXG      -0.127000
     21 F6          37.4460    -3.8600     8.6760 f          1 SXG      -0.120500
     22 F7          34.7240     1.0290    10.2890 f          1 SXG      -0.134500
     23 F8          32.8410     1.1150    12.1180 f          1 SXG      -0.116000
     24 N1          36.1840    -1.2420     9.7520 nu         1 SXG      -0.901100
     25 O1          31.1450    -2.3850    13.7530 o          1 SXG      -0.520500
     26 O2          36.9330    -1.3970     7.3860 o          1 SXG      -0.496500
     27 O3          34.5660    -0.7250     7.9300 o          1 SXG      -0.496500
     28 S           31.9300    -1.1880    13.9780 sy         1 SXG       1.166600
     29 S1          35.7370    -1.5260     8.1820 sy         1 SXG       1.192600
     30 H1          33.1680    -0.5820    15.7530 hn         1 SXG       0.493000
     31 H2          32.3920    -2.0590    15.9860 hn         1 SXG       0.493000
     32 H3          37.1060    -1.5770    10.0130 hn         1 SXG       0.525000
@<TRIPOS>BOND
     1     1    28 1   
     2     1    30 1   
     3     1    31 1   
     4     2     4 ar  
     5     2     6 ar  
     6     2    28 1   
     7     3    28 2   
     8     4     7 ar  
     9     4    15 1   
    10     5     6 ar  
    11     5     8 ar  
    12     5    22 1   
    13     6    23 1   
    14     7     8 ar  
    15     7    16 1   
    16     8    24 1   
    17     9    10 ar  
    18     9    14 ar  
    19     9    29 1   
    20    10    11 ar  
    21    10    17 1   
    22    11    12 ar  
    23    11    18 1   
    24    12    13 ar  
    25    12    19 1   
    26    13    14 ar  
    27    13    20 1   
    28    14    21 1   
    29    24    29 1   
    30    24    32 1   
    31    25    28 2   
    32    26    29 2   
    33    27    29 2   
@<TRIPOS>SUBSTRUCTURE
     1 SXG         1 TEMP              0 ****  ****    0 ROOT
