@<TRIPOS>MOLECULE
SXI
   45    48     1     0     0
SMALL
No Charge or Current Charge


@<TRIPOS>ATOM
      1 O1          -5.6020     2.8230    -0.5680 o          1 SXI      -0.727000
      2 C7          -4.5770     0.7260    -0.0110 c6         1 SXI       0.025500
      3 O2          -6.9350     1.1970    -0.1900 o          1 SXI      -0.727000
      4 C6          -3.5930    -0.8650     1.6540 c6         1 SXI       0.166800
      5 C1           2.0440    -1.0240    -0.3660 ca         1 SXI       0.205100
      6 N1           1.8340     1.8300     0.7480 na         1 SXI      -0.191700
      7 C5          -3.2220    -1.8750     0.5300 c6         1 SXI      -0.103700
      8 C4          -2.9670    -1.1430    -0.8230 c6         1 SXI      -0.048700
      9 C3          -1.6260    -0.3500    -0.8030 c6         1 SXI      -0.073400
     10 C2          -0.4300    -1.2670    -0.4530 c6         1 SXI       0.174300
     11 C15          4.4460    -0.7210    -0.0740 ca         1 SXI       0.194000
     12 C            3.1390    -0.1690    -0.0820 ca         1 SXI      -0.198500
     13 C16          2.9140     1.2690     0.1290 cc         1 SXI       0.469000
     14 N4           3.6790     2.2730    -0.2540 nd         1 SXI      -0.375000
     15 N3           3.0570     3.4300     0.1530 nd         1 SXI      -0.053000
     16 N2           1.9300     3.1830     0.7610 nc         1 SXI      -0.203800
     17 C14          4.6470    -2.0860    -0.3240 ca         1 SXI      -0.164000
     18 C13          3.5630    -2.9250    -0.6020 ca         1 SXI      -0.046000
     19 C12          2.2670    -2.3950    -0.6270 ca         1 SXI      -0.209000
     20 O            0.7750    -0.4720    -0.4220 os         1 SXI      -0.349100
     21 C11         -0.6700    -1.9660     0.9140 c6         1 SXI      -0.102400
     22 C10         -2.0010    -2.7590     0.9130 c6         1 SXI      -0.062400
     23 N           -4.7640    -0.0410     1.2800 n7         1 SXI      -0.835400
     24 C9          -5.8120     1.6220    -0.4430 c          1 SXI       0.723000
     25 C8          -4.1830    -0.2390    -1.1690 c6         1 SXI      -0.091400
     26 H2          -3.7440     1.4280     0.1370 h1         1 SXI       0.047700
     27 H3          -3.8210    -1.4130     2.5800 h1         1 SXI       0.027700
     28 H4          -2.7430    -0.2010     1.8680 h1         1 SXI       0.027700
     29 H6          -4.0820    -2.5460     0.3970 hc         1 SXI       0.047700
     30 H7          -2.8870    -1.9040    -1.6120 hc         1 SXI       0.021700
     31 H8          -1.4530     0.1060    -1.7870 hc         1 SXI       0.065200
     32 H9          -1.6710     0.4790    -0.0850 hc         1 SXI       0.065200
     33 H10         -0.3480    -2.0180    -1.2520 h1         1 SXI       0.041700
     34 H11          5.6530    -2.4970    -0.2990 ha         1 SXI       0.130000
     35 H12          3.7270    -3.9820    -0.8010 ha         1 SXI       0.114000
     36 H13          1.4510    -3.0700    -0.8620 ha         1 SXI       0.131000
     37 H14          0.1550    -2.6530     1.1440 hc         1 SXI       0.043200
     38 H15         -0.6760    -1.2180     1.7180 hc         1 SXI       0.043200
     39 H16         -2.1630    -3.2170     1.8980 hc         1 SXI       0.031700
     40 H17         -1.9210    -3.5920     0.2000 hc         1 SXI       0.031700
     41 H18         -5.5800    -0.6550     1.1660 hn         1 SXI       0.425000
     42 H20         -5.0450    -0.8750    -1.4140 hc         1 SXI       0.050200
     43 H21         -3.9710     0.3410    -2.0780 hc         1 SXI       0.050200
     44 Cl           5.8820     0.2290     0.3210 cl         1 SXI      -0.181000
     45 H5           1.0430     1.3330     1.1350 hn         1 SXI       0.389000
@<TRIPOS>BOND
     1     1    24 1   
     2     2    23 1   
     3     2    24 1   
     4     2    25 1   
     5     2    26 1   
     6     3    24 1   
     7     4     7 1   
     8     4    23 1   
     9     4    27 1   
    10     4    28 1   
    11     5    12 ar  
    12     5    19 ar  
    13     5    20 1   
    14     6    13 1   
    15     6    16 1   
    16     6    45 1   
    17     7     8 1   
    18     7    22 1   
    19     7    29 1   
    20     8     9 1   
    21     8    25 1   
    22     8    30 1   
    23     9    10 1   
    24     9    31 1   
    25     9    32 1   
    26    10    20 1   
    27    10    21 1   
    28    10    33 1   
    29    11    12 ar  
    30    11    17 ar  
    31    11    44 1   
    32    12    13 1   
    33    13    14 2   
    34    14    15 1   
    35    15    16 2   
    36    17    18 ar  
    37    17    34 1   
    38    18    19 ar  
    39    18    35 1   
    40    19    36 1   
    41    21    22 1   
    42    21    37 1   
    43    21    38 1   
    44    22    39 1   
    45    22    40 1   
    46    23    41 1   
    47    25    42 1   
    48    25    43 1   
@<TRIPOS>SUBSTRUCTURE
     1 SXI         1 TEMP              0 ****  ****    0 ROOT
