@<TRIPOS>MOLECULE
SXI
   45    48     1     0     0
SMALL
bcc


@<TRIPOS>ATOM
      1 O1          -5.4590     2.5660    -1.1590 o          1 SXI      -0.832300
      2 C7          -4.4650     0.7490    -0.0020 c6         1 SXI       0.025500
      3 O2          -6.8140     1.1630    -0.0810 o          1 SXI      -0.832300
      4 C6          -3.6770    -0.9230     1.5740 c6         1 SXI       0.166800
      5 C1           1.9680    -1.0720    -0.2820 ca         1 SXI       0.205100
      6 N1           2.1560     1.7650     1.1170 na         1 SXI      -0.141400
      7 C5          -3.2280    -1.8680     0.4570 c6         1 SXI      -0.103700
      8 C4          -2.8830    -1.0820    -0.8140 c6         1 SXI      -0.048700
      9 C3          -1.5510    -0.3390    -0.6790 c6         1 SXI      -0.073400
     10 C2          -0.4350    -1.2950    -0.2990 c6         1 SXI       0.151100
     11 C15          4.3440    -0.6610    -0.2550 ca         1 SXI       0.102400
     12 C            3.0440    -0.1770    -0.1550 ca         1 SXI      -0.198500
     13 C16          2.7610     1.2430     0.0500 cc         1 SXI       0.469000
     14 N4           3.0340     2.2370    -0.7620 nd         1 SXI      -0.375000
     15 N3           2.5880     3.3400    -0.1650 nd         1 SXI      -0.053000
     16 N2           2.0570     3.0700     0.9640 nc         1 SXI      -0.203800
     17 C14          4.6040    -2.0030    -0.4760 ca         1 SXI      -0.182000
     18 C13          3.5290    -2.8690    -0.5990 ca         1 SXI      -0.064000
     19 C12          2.2200    -2.4240    -0.5030 ca         1 SXI      -0.227000
     20 O            0.7600    -0.5120    -0.1920 os         1 SXI      -0.325900
     21 C11         -0.7440    -2.0140     1.0050 c6         1 SXI      -0.102400
     22 C10         -2.0680    -2.7680     0.8800 c6         1 SXI      -0.062400
     23 N           -4.7430    -0.0120     1.2040 n7         1 SXI      -0.780200
     24 C9          -5.6920     1.5740    -0.4380 c          1 SXI       0.933600
     25 C8          -4.0260    -0.1350    -1.1800 c6         1 SXI      -0.091400
     26 H2          -3.6530     1.4520     0.2230 h1         1 SXI       0.047700
     27 H3          -4.0140    -1.5140     2.4310 h1         1 SXI       0.027700
     28 H4          -2.8260    -0.3360     1.9360 h1         1 SXI       0.027700
     29 H6          -4.0840    -2.5150     0.2250 hc         1 SXI       0.047700
     30 H7          -2.7640    -1.8050    -1.6310 hc         1 SXI       0.021700
     31 H8          -1.3090     0.1440    -1.6310 hc         1 SXI       0.065200
     32 H9          -1.6160     0.4560     0.0710 hc         1 SXI       0.065200
     33 H10         -0.3150    -2.0280    -1.1080 h1         1 SXI       0.041700
     34 H11          5.6200    -2.3630    -0.5470 ha         1 SXI       0.148000
     35 H12          3.7150    -3.9210    -0.7700 ha         1 SXI       0.132000
     36 H13          1.4170    -3.1390    -0.6040 ha         1 SXI       0.149000
     37 H14          0.0520    -2.7160     1.2620 hc         1 SXI       0.043200
     38 H15         -0.7910    -1.2790     1.8140 hc         1 SXI       0.043200
     39 H16         -2.2980    -3.2600     1.8290 hc         1 SXI       0.031700
     40 H17         -1.9500    -3.5660     0.1400 hc         1 SXI       0.031700
     41 H18         -5.6040    -0.5260     1.0610 hn         1 SXI       0.369800
     42 H20         -4.8860    -0.7290    -1.5100 hc         1 SXI       0.050200
     43 H21         -3.7360     0.4900    -2.0290 hc         1 SXI       0.050200
     44 CL           5.6760     0.4240    -0.0710 cl         1 SXI      -0.089400
     45 H5           1.8040     1.3100     1.9480 hn         1 SXI       0.338700
@<TRIPOS>BOND
     1     1    24 1   
     2     2    23 1   
     3     2    24 1   
     4     2    25 1   
     5     2    26 1   
     6     3    24 1   
     7     4     7 1   
     8     4    23 1   
     9     4    27 1   
    10     4    28 1   
    11     5    12 ar  
    12     5    19 ar  
    13     5    20 1   
    14     6    13 1   
    15     6    16 1   
    16     6    45 1   
    17     7     8 1   
    18     7    22 1   
    19     7    29 1   
    20     8     9 1   
    21     8    25 1   
    22     8    30 1   
    23     9    10 1   
    24     9    31 1   
    25     9    32 1   
    26    10    20 1   
    27    10    21 1   
    28    10    33 1   
    29    11    12 ar  
    30    11    17 ar  
    31    11    44 1   
    32    12    13 1   
    33    13    14 2   
    34    14    15 1   
    35    15    16 2   
    36    17    18 ar  
    37    17    34 1   
    38    18    19 ar  
    39    18    35 1   
    40    19    36 1   
    41    21    22 1   
    42    21    37 1   
    43    21    38 1   
    44    22    39 1   
    45    22    40 1   
    46    23    41 1   
    47    25    42 1   
    48    25    43 1   
@<TRIPOS>SUBSTRUCTURE
     1 SXI         1 TEMP              0 ****  ****    0 ROOT
