@<TRIPOS>MOLECULE
SXJ
   78    82     1     0     0
SMALL
abcg2


@<TRIPOS>ATOM
      1 C1          -5.5560     2.5040    -0.4480 c3         1 SXJ      -0.079600
      2 C2          -4.9200     1.9360     0.8210 c6         1 SXJ      -0.042000
      3 C3          -4.9860     3.0060     1.9100 c3         1 SXJ      -0.079600
      4 C4          -5.6480     0.6760     1.2990 c6         1 SXJ      -0.065400
      5 C5          -5.4860    -0.4930     0.3360 c6         1 SXJ      -0.053400
      6 C6          -4.0220    -0.8540     0.0120 c6         1 SXJ      -0.175000
      7 C7          -3.3340    -1.4770     1.2270 c6         1 SXJ      -0.042400
      8 C8          -1.8850    -1.8680     0.9440 c6         1 SXJ      -0.063400
      9 C9          -1.0210    -0.6950     0.4510 c6         1 SXJ      -0.013000
     10 C10         -0.7420     0.2530     1.6450 c3         1 SXJ      -0.083100
     11 C11         -1.7780     0.0380    -0.6740 c6         1 SXJ      -0.152700
     12 C13         -3.2480     0.4130    -0.4030 c6         1 SXJ      -0.013700
     13 C15         -3.4490     1.5660     0.5870 c6         1 SXJ      -0.063400
     14 C16         -0.9400     1.1580    -1.2340 c          1 SXJ       0.578300
     15 O17         -1.4210     2.0950    -1.8500 o          1 SXJ      -0.545100
     16 C18          0.5150     1.0700    -1.0640 ce         1 SXJ      -0.315200
     17 C19          1.1620     0.0160    -0.5400 c2         1 SXJ      -0.040400
     18 C20          0.3490    -1.2080    -0.1340 c6         1 SXJ      -0.004800
     19 C21          0.1830    -2.0690    -1.4080 c3         1 SXJ      -0.087100
     20 C22          1.0580    -2.1050     0.8970 c6         1 SXJ      -0.069400
     21 C23          2.5550    -2.2160     0.6860 c6         1 SXJ      -0.070400
     22 C24          3.1880    -0.8330     0.7020 c6         1 SXJ      -0.043700
     23 C26          4.7280    -0.8910     0.9020 c6         1 SXJ       0.005200
     24 C27          4.9970    -1.1420     2.4010 c3         1 SXJ      -0.083100
     25 C28          5.4100    -2.0150     0.1030 c3         1 SXJ      -0.083100
     26 C29          5.3640     0.4280     0.5520 c2         1 SXJ       0.168900
     27 O30          6.6740     0.4510     0.7910 oh         1 SXJ      -0.532100
     28 C31          4.6690     1.4810     0.0700 ce         1 SXJ      -0.163900
     29 C32          3.1980     1.4520    -0.2420 c6         1 SXJ       0.000800
     30 C33          2.6950     0.0220    -0.4870 c6         1 SXJ       0.001200
     31 C34          3.2100    -0.4580    -1.8570 c3         1 SXJ      -0.081100
     32 C35          5.3600     2.6960    -0.1640 cg         1 SXJ       0.291700
     33 N36          5.9220     3.6880    -0.3520 n1         1 SXJ      -0.494000
     34 C37         -4.1230    -1.8890    -1.1490 c          1 SXJ       0.713000
     35 O38         -4.0470    -1.4630    -2.3210 o          1 SXJ      -0.730500
     36 O39         -4.3470    -3.0740    -0.8260 o          1 SXJ      -0.730500
     37 H11         -1.8500    -0.6670    -1.5130 hc         1 SXJ       0.117700
     38 H13         -3.6520     0.7380    -1.3640 hc         1 SXJ       0.085700
     39 H24          2.8000    -0.3230     1.5960 hc         1 SXJ       0.055700
     40 H1          -5.5690     1.7950    -1.2750 hc         1 SXJ       0.025200
     41 H1A         -6.5900     2.8080    -0.2650 hc         1 SXJ       0.025200
     42 H1B         -5.0080     3.3870    -0.7850 hc         1 SXJ       0.025200
     43 H3          -6.0190     3.2810     2.1370 hc         1 SXJ       0.025200
     44 H3A         -4.5250     2.6550     2.8360 hc         1 SXJ       0.025200
     45 H3B         -4.4620     3.9140     1.6010 hc         1 SXJ       0.025200
     46 H4          -5.2590     0.4040     2.2870 hc         1 SXJ       0.019700
     47 H4A         -6.7130     0.8880     1.4400 hc         1 SXJ       0.019700
     48 H5          -5.9890    -1.3780     0.7370 hc         1 SXJ       0.045200
     49 H5A         -6.0000    -0.2500    -0.6000 hc         1 SXJ       0.045200
     50 H7          -3.3710    -0.7820     2.0720 hc         1 SXJ       0.027700
     51 H7A         -3.8850    -2.3630     1.5450 hc         1 SXJ       0.027700
     52 H8          -1.4430    -2.2900     1.8510 hc         1 SXJ       0.040200
     53 H8A         -1.8970    -2.6740     0.2060 hc         1 SXJ       0.040200
     54 H10          0.2100     0.0400     2.1280 hc         1 SXJ       0.027033
     55 H10A        -0.7150     1.3040     1.3630 hc         1 SXJ       0.027033
     56 H10B        -1.5040     0.1470     2.4160 hc         1 SXJ       0.027033
     57 H15         -2.9140     2.4530     0.2340 hc         1 SXJ       0.027200
     58 H15A        -3.0190     1.3250     1.5610 hc         1 SXJ       0.027200
     59 H18          1.0550     1.9330    -1.4340 ha         1 SXJ       0.179000
     60 H21         -0.1700    -1.5060    -2.2700 hc         1 SXJ       0.043033
     61 H21A         1.1360    -2.5130    -1.6980 hc         1 SXJ       0.043033
     62 H21B        -0.5100    -2.8920    -1.2310 hc         1 SXJ       0.043033
     63 H22          0.8960    -1.7400     1.9130 hc         1 SXJ       0.047700
     64 H22A         0.6060    -3.0990     0.8590 hc         1 SXJ       0.047700
     65 H23          2.9700    -2.8340     1.4840 hc         1 SXJ       0.038200
     66 H23A         2.7890    -2.7390    -0.2440 hc         1 SXJ       0.038200
     67 H27          6.0530    -1.3250     2.5950 hc         1 SXJ       0.041033
     68 H27A         4.6740    -0.2980     3.0110 hc         1 SXJ       0.041033
     69 H27B         4.4470    -2.0220     2.7340 hc         1 SXJ       0.041033
     70 H28          5.2540    -1.9290    -0.9700 hc         1 SXJ       0.041033
     71 H28A         6.4840    -2.0200     0.2850 hc         1 SXJ       0.041033
     72 H28B         5.0310    -2.9860     0.4190 hc         1 SXJ       0.041033
     73 H32          2.6310     1.9060     0.5770 hc         1 SXJ       0.059200
     74 H34          3.0200    -1.5160    -2.0270 hc         1 SXJ       0.038367
     75 H34A         2.7120     0.0950    -2.6540 hc         1 SXJ       0.038367
     76 H34B         4.2820    -0.2910    -1.9630 hc         1 SXJ       0.038367
     77 HO30         7.0830     1.2910     0.5420 ho         1 SXJ       0.474000
     78 H32A         3.0300     2.0780    -1.1200 hc         1 SXJ       0.059200
@<TRIPOS>BOND
     1     1     2 1   
     2     1    40 1   
     3     1    41 1   
     4     1    42 1   
     5     2     3 1   
     6     2     4 1   
     7     2    13 1   
     8     3    43 1   
     9     3    44 1   
    10     3    45 1   
    11     4     5 1   
    12     4    46 1   
    13     4    47 1   
    14     5     6 1   
    15     5    48 1   
    16     5    49 1   
    17     6     7 1   
    18     6    12 1   
    19     6    34 1   
    20     7     8 1   
    21     7    50 1   
    22     7    51 1   
    23     8     9 1   
    24     8    52 1   
    25     8    53 1   
    26     9    10 1   
    27     9    11 1   
    28     9    18 1   
    29    10    54 1   
    30    10    55 1   
    31    10    56 1   
    32    11    12 1   
    33    11    14 1   
    34    11    37 1   
    35    12    13 1   
    36    12    38 1   
    37    13    57 1   
    38    13    58 1   
    39    14    15 2   
    40    14    16 1   
    41    16    17 2   
    42    16    59 1   
    43    17    18 1   
    44    17    30 1   
    45    18    19 1   
    46    18    20 1   
    47    19    60 1   
    48    19    61 1   
    49    19    62 1   
    50    20    21 1   
    51    20    63 1   
    52    20    64 1   
    53    21    22 1   
    54    21    65 1   
    55    21    66 1   
    56    22    23 1   
    57    22    30 1   
    58    22    39 1   
    59    23    24 1   
    60    23    25 1   
    61    23    26 1   
    62    24    67 1   
    63    24    68 1   
    64    24    69 1   
    65    25    70 1   
    66    25    71 1   
    67    25    72 1   
    68    26    27 1   
    69    26    28 2   
    70    27    77 1   
    71    28    29 1   
    72    28    32 1   
    73    29    30 1   
    74    29    73 1   
    75    29    78 1   
    76    30    31 1   
    77    31    74 1   
    78    31    75 1   
    79    31    76 1   
    80    32    33 3   
    81    34    35 1   
    82    34    36 1   
@<TRIPOS>SUBSTRUCTURE
     1 SXJ         1 TEMP              0 ****  ****    0 ROOT
