@<TRIPOS>MOLECULE
SXJ
   78    82     1     0     0
SMALL
No Charge or Current Charge


@<TRIPOS>ATOM
      1 C1          -5.6110     2.5870    -0.4780 c3         1 SXJ      -0.079600
      2 C2          -4.9040     2.0380     0.8050 c6         1 SXJ      -0.042000
      3 C3          -4.9100     3.2060     1.8390 c3         1 SXJ      -0.079600
      4 C4          -5.6580     0.8160     1.4050 c6         1 SXJ      -0.065400
      5 C5          -5.6000    -0.4360     0.4920 c6         1 SXJ      -0.053400
      6 C6          -4.1550    -0.8880     0.0800 c6         1 SXJ      -0.175000
      7 C7          -3.3930    -1.5220     1.2980 c6         1 SXJ      -0.042400
      8 C8          -1.9350    -1.9590     0.9420 c6         1 SXJ      -0.063400
      9 C9          -1.0390    -0.7910     0.3960 c6         1 SXJ      -0.013000
     10 C10         -0.7310     0.2200     1.5830 c3         1 SXJ      -0.083100
     11 C11         -1.8390    -0.0850    -0.7730 c6         1 SXJ      -0.152700
     12 C13         -3.3120     0.3590    -0.4180 c6         1 SXJ      -0.013700
     13 C15         -3.4350     1.6090     0.5210 c6         1 SXJ      -0.063400
     14 C16         -0.9870     0.9810    -1.4890 c          1 SXJ       0.578300
     15 O17         -1.4550     1.7050    -2.3580 o          1 SXJ      -0.545100
     16 C18          0.4770     0.9990    -1.1970 ce         1 SXJ      -0.315200
     17 C19          1.1620    -0.0210    -0.5990 c2         1 SXJ      -0.040400
     18 C20          0.3660    -1.2990    -0.1910 c6         1 SXJ      -0.004800
     19 C21          0.2320    -2.1550    -1.5090 c3         1 SXJ      -0.087100
     20 C22          1.0900    -2.2270     0.8540 c6         1 SXJ      -0.069400
     21 C23          2.6070    -2.3390     0.6570 c6         1 SXJ      -0.070400
     22 C24          3.2300    -0.8990     0.7240 c6         1 SXJ      -0.043700
     23 C26          4.7960    -0.9180     0.9470 c6         1 SXJ       0.005200
     24 C27          5.1080    -1.3130     2.4300 c3         1 SXJ      -0.083100
     25 C28          5.5580    -1.9560     0.0500 c3         1 SXJ      -0.083100
     26 C29          5.4140     0.5390     0.6890 c2         1 SXJ       0.168900
     27 O30          6.7570     0.6790     0.9540 oh         1 SXJ      -0.532100
     28 C31          4.6830     1.6050     0.2320 ce         1 SXJ      -0.163900
     29 C32          3.1840     1.4780    -0.0800 c6         1 SXJ       0.000800
     30 C33          2.7170     0.0270    -0.4440 c6         1 SXJ       0.001200
     31 C34          3.2950    -0.3440    -1.8500 c3         1 SXJ      -0.081100
     32 C35          5.2710     2.8950     0.0240 cg         1 SXJ       0.291700
     33 N36          5.7970     3.9250    -0.1290 n1         1 SXJ      -0.494000
     34 C37         -4.3540    -1.9590    -1.0600 c          1 SXJ       0.713000
     35 O38         -4.3940    -1.5860    -2.2240 o          1 SXJ      -0.730500
     36 O39         -4.5720    -3.1200    -0.7420 o          1 SXJ      -0.730500
     37 H11         -1.9830    -0.8240    -1.5640 hc         1 SXJ       0.117700
     38 H13         -3.7530     0.6830    -1.3690 hc         1 SXJ       0.085700
     39 H24          2.8180    -0.4460     1.6380 hc         1 SXJ       0.055700
     40 H1          -5.6880     1.8390    -1.2750 hc         1 SXJ       0.025200
     41 H1A         -6.6320     2.9200    -0.2560 hc         1 SXJ       0.025200
     42 H1B         -5.0700     3.4450    -0.8930 hc         1 SXJ       0.025200
     43 H3          -5.9320     3.5260     2.0780 hc         1 SXJ       0.025200
     44 H3A         -4.4330     2.9100     2.7810 hc         1 SXJ       0.025200
     45 H3B         -4.3690     4.0810     1.4600 hc         1 SXJ       0.025200
     46 H4          -5.2420     0.5670     2.3900 hc         1 SXJ       0.019700
     47 H4A         -6.7090     1.0800     1.5860 hc         1 SXJ       0.019700
     48 H5          -6.1150    -1.2680     0.9930 hc         1 SXJ       0.045200
     49 H5A         -6.1910    -0.2410    -0.4120 hc         1 SXJ       0.045200
     50 H7          -3.3810    -0.8280     2.1460 hc         1 SXJ       0.027700
     51 H7A         -3.9430    -2.3960     1.6720 hc         1 SXJ       0.027700
     52 H8          -1.4760    -2.3860     1.8430 hc         1 SXJ       0.040200
     53 H8A         -1.9790    -2.7780     0.2160 hc         1 SXJ       0.040200
     54 H10          0.2510     0.0770     2.0420 hc         1 SXJ       0.027033
     55 H10A        -0.7250     1.2620     1.2450 hc         1 SXJ       0.027033
     56 H10B        -1.4420     0.1480     2.4100 hc         1 SXJ       0.027033
     57 H15         -2.8800     2.4530     0.0900 hc         1 SXJ       0.027200
     58 H15A        -2.9810     1.4140     1.4940 hc         1 SXJ       0.027200
     59 H18          0.9810     1.8660    -1.6120 ha         1 SXJ       0.179000
     60 H21         -0.0860    -1.5610    -2.3730 hc         1 SXJ       0.043033
     61 H21A         1.1850    -2.6020    -1.8050 hc         1 SXJ       0.043033
     62 H21B        -0.4740    -2.9850    -1.3990 hc         1 SXJ       0.043033
     63 H22          0.9150    -1.9100     1.8880 hc         1 SXJ       0.047700
     64 H22A         0.6590    -3.2370     0.8090 hc         1 SXJ       0.047700
     65 H23          2.9860    -3.0500     1.4220 hc         1 SXJ       0.038200
     66 H23A         2.8370    -2.8140    -0.3040 hc         1 SXJ       0.038200
     67 H27          6.1870    -1.3380     2.6260 hc         1 SXJ       0.041033
     68 H27A         4.6700    -0.5930     3.1330 hc         1 SXJ       0.041033
     69 H27B         4.7180    -2.3030     2.6870 hc         1 SXJ       0.041033
     70 H28          5.4360    -1.7720    -1.0190 hc         1 SXJ       0.041033
     71 H28A         6.6360    -1.9350     0.2490 hc         1 SXJ       0.041033
     72 H28B         5.2300    -2.9840     0.2440 hc         1 SXJ       0.041033
     73 H32          2.6060     1.8540     0.7770 hc         1 SXJ       0.059200
     74 H34          3.1780    -1.4060    -2.0830 hc         1 SXJ       0.038367
     75 H34A         2.7880     0.2160    -2.6450 hc         1 SXJ       0.038367
     76 H34B         4.3580    -0.0960    -1.9390 hc         1 SXJ       0.038367
     77 HO30         7.0060     1.6060     0.7570 ho         1 SXJ       0.474000
     78 H32A         2.9620     2.1580    -0.9130 hc         1 SXJ       0.059200
@<TRIPOS>BOND
     1     1     2 1   
     2     1    40 1   
     3     1    41 1   
     4     1    42 1   
     5     2     3 1   
     6     2     4 1   
     7     2    13 1   
     8     3    43 1   
     9     3    44 1   
    10     3    45 1   
    11     4     5 1   
    12     4    46 1   
    13     4    47 1   
    14     5     6 1   
    15     5    48 1   
    16     5    49 1   
    17     6     7 1   
    18     6    12 1   
    19     6    34 1   
    20     7     8 1   
    21     7    50 1   
    22     7    51 1   
    23     8     9 1   
    24     8    52 1   
    25     8    53 1   
    26     9    10 1   
    27     9    11 1   
    28     9    18 1   
    29    10    54 1   
    30    10    55 1   
    31    10    56 1   
    32    11    12 1   
    33    11    14 1   
    34    11    37 1   
    35    12    13 1   
    36    12    38 1   
    37    13    57 1   
    38    13    58 1   
    39    14    15 2   
    40    14    16 1   
    41    16    17 2   
    42    16    59 1   
    43    17    18 1   
    44    17    30 1   
    45    18    19 1   
    46    18    20 1   
    47    19    60 1   
    48    19    61 1   
    49    19    62 1   
    50    20    21 1   
    51    20    63 1   
    52    20    64 1   
    53    21    22 1   
    54    21    65 1   
    55    21    66 1   
    56    22    23 1   
    57    22    30 1   
    58    22    39 1   
    59    23    24 1   
    60    23    25 1   
    61    23    26 1   
    62    24    67 1   
    63    24    68 1   
    64    24    69 1   
    65    25    70 1   
    66    25    71 1   
    67    25    72 1   
    68    26    27 1   
    69    26    28 2   
    70    27    77 1   
    71    28    29 1   
    72    28    32 1   
    73    29    30 1   
    74    29    73 1   
    75    29    78 1   
    76    30    31 1   
    77    31    74 1   
    78    31    75 1   
    79    31    76 1   
    80    32    33 3   
    81    34    35 1   
    82    34    36 1   
@<TRIPOS>SUBSTRUCTURE
     1 SXJ         1 TEMP              0 ****  ****    0 ROOT
