@<TRIPOS>MOLECULE
SXK
   28    29     1     0     0
SMALL
abcg2


@<TRIPOS>ATOM
      1 OAA         -5.9700     1.0150     0.5140 o          1 SXK      -0.710500
      2 OAB         -6.5170    -0.8580    -0.5770 o          1 SXK      -0.710500
      3 CAE          4.3520     1.2380    -0.5940 ca         1 SXK      -0.173000
      4 CAF         -1.2620     1.4250     0.6630 ca         1 SXK      -0.197000
      5 CAG         -1.4380    -0.6830    -0.4790 ca         1 SXK      -0.197000
      6 CAH          0.1150     1.3360     0.6110 ca         1 SXK      -0.051000
      7 CAI         -0.0530    -0.7590    -0.5210 ca         1 SXK      -0.051000
      8 CAJ          2.9670     1.2630    -0.5310 ca         1 SXK      -0.065000
      9 CAK          4.3240    -0.9980     0.3240 ca         1 SXK      -0.205000
     10 CAL         -4.2430    -0.4040    -0.3270 c3         1 SXK      -0.000400
     11 OAM         -3.3860     0.5810     0.2190 os         1 SXK      -0.288100
     12 CAN         -5.7160    -0.0300    -0.1000 c          1 SXK       0.729000
     13 CAO          5.0040     0.0990    -0.1660 ca         1 SXK       0.177000
     14 CAP         -2.0600     0.4130     0.1190 ca         1 SXK       0.190100
     15 CAQ          2.9450    -0.9250     0.3720 ca         1 SXK       0.196000
     16 CAR          0.7500     0.2410     0.0190 cp         1 SXK      -0.135000
     17 CAS          2.2230     0.1840    -0.0510 cp         1 SXK      -0.042000
     18 HAE          4.9060     2.0840    -0.9770 ha         1 SXK       0.128000
     19 HAF         -1.7340     2.2790     1.1320 ha         1 SXK       0.127500
     20 HAG         -2.0120    -1.4860    -0.9220 ha         1 SXK       0.127500
     21 HAH          0.7060     2.1290     1.0520 ha         1 SXK       0.099500
     22 HAI          0.3980    -1.6120    -1.0110 ha         1 SXK       0.099500
     23 HAJ          2.4440     2.1430    -0.8820 ha         1 SXK       0.125000
     24 HAK          4.8470    -1.8800     0.6710 ha         1 SXK       0.141000
     25 HAL         -4.0630    -0.5160    -1.4030 h1         1 SXK       0.019200
     26 HALA        -4.0480    -1.3820     0.1320 h1         1 SXK       0.019200
     27 FCC          6.3410     0.0470    -0.2250 f          1 SXK      -0.186000
     28 FDD          2.2860    -1.9780     0.8740 f          1 SXK      -0.169000
@<TRIPOS>BOND
     1     1    12 1   
     2     2    12 1   
     3     3     8 ar  
     4     3    13 ar  
     5     3    18 1   
     6     4     6 ar  
     7     4    14 ar  
     8     4    19 1   
     9     5     7 ar  
    10     5    14 ar  
    11     5    20 1   
    12     6    16 ar  
    13     6    21 1   
    14     7    16 ar  
    15     7    22 1   
    16     8    17 ar  
    17     8    23 1   
    18     9    13 ar  
    19     9    15 ar  
    20     9    24 1   
    21    10    11 1   
    22    10    12 1   
    23    10    25 1   
    24    10    26 1   
    25    11    14 1   
    26    13    27 1   
    27    15    17 ar  
    28    15    28 1   
    29    16    17 1   
@<TRIPOS>SUBSTRUCTURE
     1 SXK         1 TEMP              0 ****  ****    0 ROOT
