@<TRIPOS>MOLECULE
SXK
   28    29     1     0     0
SMALL
No Charge or Current Charge


@<TRIPOS>ATOM
      1 OAA         -6.1370     1.0080     0.3990 o          1 SXK      -0.710500
      2 OAB         -6.6760    -0.8710    -0.5020 o          1 SXK      -0.710500
      3 CAE          4.4280     1.2650    -0.5180 ca         1 SXK      -0.173000
      4 CAF         -1.2690     1.4880     0.6050 ca         1 SXK      -0.197000
      5 CAG         -1.4410    -0.6950    -0.4450 ca         1 SXK      -0.197000
      6 CAH          0.1330     1.4030     0.5580 ca         1 SXK      -0.051000
      7 CAI         -0.0380    -0.7800    -0.4910 ca         1 SXK      -0.051000
      8 CAJ          3.0240     1.3140    -0.4550 ca         1 SXK      -0.065000
      9 CAK          4.3870    -1.0380     0.2540 ca         1 SXK      -0.205000
     10 CAL         -4.3400    -0.4370    -0.3050 c3         1 SXK      -0.000400
     11 OAM         -3.4340     0.5830     0.1800 os         1 SXK      -0.288100
     12 CAN         -5.8400    -0.0630    -0.1180 c          1 SXK       0.729000
     13 CAO          5.1030     0.0890    -0.1640 ca         1 SXK       0.177000
     14 CAP         -2.0620     0.4440     0.1080 ca         1 SXK       0.190100
     15 CAQ          2.9850    -0.9920     0.3160 ca         1 SXK       0.196000
     16 CAR          0.7760     0.2650     0.0140 cp         1 SXK      -0.135000
     17 CAS          2.2710     0.1860    -0.0410 cp         1 SXK      -0.042000
     18 HAE          4.9910     2.1370    -0.8420 ha         1 SXK       0.128000
     19 HAF         -1.7430     2.3680     1.0310 ha         1 SXK       0.127500
     20 HAG         -2.0260    -1.5180    -0.8440 ha         1 SXK       0.127500
     21 HAH          0.7270     2.2230     0.9560 ha         1 SXK       0.099500
     22 HAI          0.4220    -1.6590    -0.9350 ha         1 SXK       0.099500
     23 HAJ          2.5120     2.2300    -0.7420 ha         1 SXK       0.125000
     24 HAK          4.9150    -1.9450     0.5350 ha         1 SXK       0.141000
     25 HAL         -4.1740    -0.6110    -1.3760 h1         1 SXK       0.019200
     26 HALA        -4.1650    -1.3810     0.2260 h1         1 SXK       0.019200
     27 FCC          6.4510     0.0450    -0.2240 f          1 SXK      -0.186000
     28 FDD          2.3310    -2.0920     0.7550 f          1 SXK      -0.169000
@<TRIPOS>BOND
     1     1    12 1   
     2     2    12 1   
     3     3     8 ar  
     4     3    13 ar  
     5     3    18 1   
     6     4     6 ar  
     7     4    14 ar  
     8     4    19 1   
     9     5     7 ar  
    10     5    14 ar  
    11     5    20 1   
    12     6    16 ar  
    13     6    21 1   
    14     7    16 ar  
    15     7    22 1   
    16     8    17 ar  
    17     8    23 1   
    18     9    13 ar  
    19     9    15 ar  
    20     9    24 1   
    21    10    11 1   
    22    10    12 1   
    23    10    25 1   
    24    10    26 1   
    25    11    14 1   
    26    13    27 1   
    27    15    17 ar  
    28    15    28 1   
    29    16    17 1   
@<TRIPOS>SUBSTRUCTURE
     1 SXK         1 TEMP              0 ****  ****    0 ROOT
