@<TRIPOS>MOLECULE
SXL
   28    29     1     0     0
SMALL
No Charge or Current Charge


@<TRIPOS>ATOM
      1 C1          -4.7090     1.2470    14.9700 c3         1 SXL       0.017300
      2 C2          -4.5170     2.7120    14.5360 ca         1 SXL      -0.121300
      3 C3          -3.3700     3.4340    14.9220 ca         1 SXL      -0.095000
      4 C4          -3.1990     4.7740    14.5330 ca         1 SXL      -0.059000
      5 C5          -4.1740     5.4300    13.7490 ca         1 SXL      -0.125800
      6 C6          -5.3230     4.7060    13.3710 ca         1 SXL       0.162100
      7 C8          -4.0000     6.8310    13.3400 cc         1 SXL       0.036600
      8 C11         -2.7940     7.6580    13.7120 c3         1 SXL      -0.065900
      9 C10         -6.2340     6.5890    12.1860 c          1 SXL       0.669300
     10 C9          -5.0330     7.3410    12.5820 cd         1 SXL      -0.319200
     11 O3          -6.3000     5.2970    12.6150 os         1 SXL      -0.335200
     12 C7          -5.4950     3.3680    13.7590 ca         1 SXL      -0.080000
     13 S1          -5.5880     1.1280    16.5950 s6         1 SXL       1.188100
     14 O1          -6.9730     1.5760    16.4500 o          1 SXL      -0.495000
     15 O2          -4.7380     1.6480    17.6690 o          1 SXL      -0.495000
     16 F1          -5.4080     0.5600    14.0310 f          1 SXL      -0.103000
     17 F2          -3.5110     0.6140    15.0580 f          1 SXL      -0.103000
     18 N1          -5.6890    -0.5020    16.8420 n8         1 SXL      -1.020100
     19 H1          -2.6010     2.9620    15.5300 ha         1 SXL       0.140000
     20 H2          -2.2990     5.2940    14.8510 ha         1 SXL       0.126000
     21 H3          -1.8750     7.2050    13.3220 hc         1 SXL       0.057367
     22 H4          -2.8620     8.6730    13.3030 hc         1 SXL       0.057367
     23 H5          -2.7000     7.7450    14.8000 hc         1 SXL       0.057367
     24 H6          -5.0220     8.3610    12.2200 ha         1 SXL       0.215000
     25 H7          -6.3980     2.8470    13.4510 ha         1 SXL       0.158000
     26 H8          -5.8670    -0.8670    15.9090 hn         1 SXL       0.505000
     27 H9          -6.5930    -0.5850    17.3010 hn         1 SXL       0.505000
     28 O4          -7.1230     7.0880    11.5120 o          1 SXL      -0.476000
@<TRIPOS>BOND
     1     1     2 1   
     2     1    13 1   
     3     1    16 1   
     4     1    17 1   
     5     2     3 ar  
     6     2    12 ar  
     7     3     4 ar  
     8     3    19 1   
     9     4     5 ar  
    10     4    20 1   
    11     5     6 ar  
    12     5     7 1   
    13     6    11 1   
    14     6    12 ar  
    15     7     8 1   
    16     7    10 2   
    17     8    21 1   
    18     8    22 1   
    19     8    23 1   
    20     9    10 1   
    21     9    11 1   
    22     9    28 2   
    23    10    24 1   
    24    12    25 1   
    25    13    14 2   
    26    13    15 2   
    27    13    18 1   
    28    18    26 1   
    29    18    27 1   
@<TRIPOS>SUBSTRUCTURE
     1 SXL         1 TEMP              0 ****  ****    0 ROOT
