@<TRIPOS>MOLECULE
SXL
   28    29     1     0     0
SMALL
abcg2


@<TRIPOS>ATOM
      1 C1          -4.8260     1.3210    14.8870 c3         1 SXL       0.017300
      2 C2          -4.5860     2.7320    14.4590 ca         1 SXL      -0.121300
      3 C3          -3.4080     3.3810    14.8410 ca         1 SXL      -0.095000
      4 C4          -3.2100     4.7000    14.4860 ca         1 SXL      -0.059000
      5 C5          -4.1750     5.4030    13.7500 ca         1 SXL      -0.125800
      6 C6          -5.3460     4.7250    13.3880 ca         1 SXL       0.162100
      7 C8          -4.0310     6.7880    13.3460 cc         1 SXL       0.036600
      8 C11         -2.8030     7.5540    13.7160 c3         1 SXL      -0.065900
      9 C10         -6.2350     6.6490    12.2670 c          1 SXL       0.669300
     10 C9          -5.0320     7.3570    12.6350 cd         1 SXL      -0.319200
     11 O3          -6.3340     5.3360    12.6740 os         1 SXL      -0.335200
     12 C7          -5.5640     3.4000    13.7380 ca         1 SXL      -0.080000
     13 S1          -5.6040     1.2340    16.5900 s6         1 SXL       1.188100
     14 O1          -6.8930     1.8570    16.4570 o          1 SXL      -0.495000
     15 O2          -4.6200     1.7510    17.5020 o          1 SXL      -0.495000
     16 F1          -5.6710     0.6640    14.0510 f          1 SXL      -0.103000
     17 F2          -3.6760     0.6000    14.9520 f          1 SXL      -0.103000
     18 N1          -5.8320    -0.3320    16.9240 n8         1 SXL      -1.020100
     19 H1          -2.6570     2.8530    15.4110 ha         1 SXL       0.140000
     20 H2          -2.2970     5.1980    14.7800 ha         1 SXL       0.126000
     21 H3          -1.9110     7.0670    13.3150 hc         1 SXL       0.057367
     22 H4          -2.8520     8.5710    13.3330 hc         1 SXL       0.057367
     23 H5          -2.6880     7.5900    14.8020 hc         1 SXL       0.057367
     24 H6          -4.9750     8.3860    12.3070 ha         1 SXL       0.215000
     25 H7          -6.4840     2.9160    13.4420 ha         1 SXL       0.158000
     26 H8          -4.9860    -0.8700    17.0750 hn         1 SXL       0.505000
     27 H9          -6.5320    -0.7980    16.3570 hn         1 SXL       0.505000
     28 O4          -7.1670     7.1000    11.6360 o          1 SXL      -0.476000
@<TRIPOS>BOND
     1     1     2 1   
     2     1    13 1   
     3     1    16 1   
     4     1    17 1   
     5     2     3 ar  
     6     2    12 ar  
     7     3     4 ar  
     8     3    19 1   
     9     4     5 ar  
    10     4    20 1   
    11     5     6 ar  
    12     5     7 1   
    13     6    11 1   
    14     6    12 ar  
    15     7     8 1   
    16     7    10 2   
    17     8    21 1   
    18     8    22 1   
    19     8    23 1   
    20     9    10 1   
    21     9    11 1   
    22     9    28 2   
    23    10    24 1   
    24    12    25 1   
    25    13    14 2   
    26    13    15 2   
    27    13    18 1   
    28    18    26 1   
    29    18    27 1   
@<TRIPOS>SUBSTRUCTURE
     1 SXL         1 TEMP              0 ****  ****    0 ROOT
