@<TRIPOS>MOLECULE
SXN
  162   163     1     0     0
SMALL
No Charge or Current Charge


@<TRIPOS>ATOM
      1 O37         -8.4340     2.3270    -4.7990 o          1 SXN      -0.483000
      2 C22         -8.9680     2.3460    -3.6990 c          1 SXN       0.594100
      3 C23        -10.0520     1.3590    -3.2600 c3         1 SXN      -0.138400
      4 C24         -9.4390     0.0690    -2.6660 c3         1 SXN      -0.067400
      5 C25        -10.5070    -0.9370    -2.1870 c3         1 SXN      -0.076400
      6 C26         -9.9020    -2.2190    -1.5730 c3         1 SXN      -0.073400
      7 C27        -10.9780    -3.2200    -1.0960 c3         1 SXN      -0.075400
      8 C28        -10.3840    -4.5050    -0.4780 c3         1 SXN      -0.073400
      9 C29        -11.4670    -5.5020    -0.0100 c3         1 SXN      -0.074400
     10 C30        -10.8800    -6.7900     0.6070 c3         1 SXN      -0.073400
     11 C31        -11.9670    -7.7880     1.0630 c3         1 SXN      -0.075400
     12 C32        -11.3850    -9.0800     1.6780 c3         1 SXN      -0.073400
     13 C33        -12.4790   -10.0790     2.1250 c3         1 SXN      -0.072400
     14 C34        -11.9460   -11.4400     2.6530 c3         1 SXN      -0.059700
     15 C38        -11.0710   -11.2950     3.9220 c3         1 SXN      -0.087100
     16 C35        -13.1070   -12.4290     2.9000 c3         1 SXN      -0.087100
     17 O6          -8.6670     3.2380    -2.7070 os         1 SXN      -0.459100
     18 C6'A        -7.6810     4.2560    -2.9810 c3         1 SXN       0.179600
     19 C5'A        -7.4580     5.1130    -1.7030 c6         1 SXN       0.166300
     20 C4'A        -6.2330     6.0800    -1.8330 c6         1 SXN       0.121300
     21 O4          -6.3980     6.9620    -2.9600 oh         1 SXN      -0.697000
     22 C3'A        -6.1240     6.9380    -0.5260 c6         1 SXN       0.147300
     23 O3          -5.8030     6.1050     0.6020 oh         1 SXN      -0.655000
     24 C2'A        -7.4800     7.6870    -0.2750 c6         1 SXN       0.116300
     25 O2          -7.7080     8.6590    -1.3320 oh         1 SXN      -0.691000
     26 O5          -8.6740     5.8720    -1.4390 os         1 SXN      -0.443000
     27 C1'A        -8.6420     6.6290    -0.2060 c6         1 SXN       0.358300
     28 O1          -8.4360     5.7170     0.9050 os         1 SXN      -0.517000
     29 C1          -9.5470     5.0020     1.5150 c3         1 SXN       0.177000
     30 C17        -10.3590     6.0440     2.3270 c3         1 SXN      -0.116100
     31 C16        -10.4320     4.3370     0.4190 c3         1 SXN      -0.116100
     32 C2          -8.8750     3.9320     2.4600 c3         1 SXN       0.211500
     33 O36         -9.8430     3.1640     3.1920 oh         1 SXN      -0.707000
     34 C3          -7.9750     2.9690     1.7050 c2         1 SXN      -0.252200
     35 C4          -6.6210     3.0070     1.6860 ce         1 SXN      -0.154000
     36 C5          -5.7390     2.1190     0.9010 ce         1 SXN      -0.079200
     37 C18         -6.3830     1.3130    -0.2250 c3         1 SXN      -0.057900
     38 C6          -4.3930     2.1140     1.1370 cf         1 SXN      -0.161000
     39 C7          -3.3770     1.3240     0.4450 cf         1 SXN      -0.179000
     40 C8          -2.0340     1.4740     0.6340 ce         1 SXN      -0.165000
     41 C9          -0.9470     0.7210    -0.0270 ce         1 SXN      -0.066200
     42 C19         -1.3240    -0.1260    -1.2410 c3         1 SXN      -0.055900
     43 C10          0.3410     0.8580     0.4120 cf         1 SXN      -0.173000
     44 C11          1.5340     0.2070    -0.1260 cf         1 SXN      -0.172000
     45 C12          2.8040     0.4780     0.2920 ce         1 SXN      -0.172000
     46 C13          4.0560    -0.1330    -0.2020 ce         1 SXN      -0.062200
     47 C20          3.9790    -0.9200    -1.5100 c3         1 SXN      -0.056900
     48 C14          5.2280     0.0750     0.4700 cf         1 SXN      -0.177000
     49 C15          6.5530    -0.4360     0.1220 cf         1 SXN      -0.168000
     50 C55          7.6950    -0.1230     0.7910 ce         1 SXN      -0.173000
     51 C54          9.0270    -0.6310     0.4270 ce         1 SXN      -0.172000
     52 C52         10.2090    -0.4080     1.0780 cf         1 SXN      -0.066200
     53 C53         10.2920     0.3860     2.3800 c3         1 SXN      -0.055900
     54 C51         11.4500    -0.9920     0.5590 cf         1 SXN      -0.167000
     55 C50         12.7270    -0.6870     0.9300 ce         1 SXN      -0.177000
     56 C49         13.9220    -1.3190     0.3480 ce         1 SXN      -0.168000
     57 C47         15.2290    -1.0240     0.6140 cf         1 SXN      -0.073200
     58 C48         15.6430     0.1060     1.5540 c3         1 SXN      -0.054900
     59 C46         16.2970    -1.7600    -0.0700 cf         1 SXN      -0.159000
     60 C45         17.6240    -1.7820     0.2540 ce         1 SXN      -0.187000
     61 C44         18.6780    -2.5200    -0.4720 ce         1 SXN      -0.013200
     62 C21         19.9670    -1.6860    -0.7160 c6         1 SXN      -0.014800
     63 C36         20.8240    -1.6840     0.5880 c3         1 SXN      -0.082100
     64 C37         19.6410    -0.2010    -1.0820 c3         1 SXN      -0.082100
     65 C42         18.5820    -3.8560    -0.8160 cf         1 SXN      -0.189400
     66 C43         17.3590    -4.7040    -0.4510 c3         1 SXN      -0.046900
     67 C41         19.6940    -4.6020    -1.5210 c          1 SXN       0.571300
     68 O21         19.5610    -5.7550    -1.9160 o          1 SXN      -0.532100
     69 C40         21.0090    -3.8660    -1.7890 c6         1 SXN      -0.177400
     70 C39         20.7780    -2.3250    -1.9080 c6         1 SXN      -0.064400
     71 H23        -10.6580     1.8240    -2.4730 hc         1 SXN       0.067200
     72 H23A       -10.6740     1.0970    -4.1240 hc         1 SXN       0.067200
     73 H24         -8.8000    -0.4090    -3.4200 hc         1 SXN       0.055700
     74 H24A        -8.7910     0.3340    -1.8210 hc         1 SXN       0.055700
     75 H25        -11.1500    -0.4520    -1.4420 hc         1 SXN       0.035700
     76 H25A       -11.1490    -1.2120    -3.0340 hc         1 SXN       0.035700
     77 H26         -9.2590    -2.7070    -2.3160 hc         1 SXN       0.041200
     78 H26A        -9.2630    -1.9450    -0.7240 hc         1 SXN       0.041200
     79 H27        -11.6220    -2.7300    -0.3550 hc         1 SXN       0.036700
     80 H27A       -11.6170    -3.4920    -1.9460 hc         1 SXN       0.036700
     81 H28         -9.7380    -4.9950    -1.2180 hc         1 SXN       0.038700
     82 H28A        -9.7490    -4.2350     0.3750 hc         1 SXN       0.038700
     83 H29        -12.1130    -5.0110     0.7280 hc         1 SXN       0.036700
     84 H29A       -12.1020    -5.7690    -0.8640 hc         1 SXN       0.036700
     85 H30        -10.2290    -7.2780    -0.1290 hc         1 SXN       0.037700
     86 H30A       -10.2510    -6.5250     1.4660 hc         1 SXN       0.037700
     87 H31        -12.6190    -7.3010     1.7990 hc         1 SXN       0.036700
     88 H31A       -12.5970    -8.0510     0.2030 hc         1 SXN       0.036700
     89 H32        -10.7300    -9.5660     0.9440 hc         1 SXN       0.038200
     90 H32A       -10.7600    -8.8070     2.5370 hc         1 SXN       0.038200
     91 H33        -13.1010    -9.6100     2.8980 hc         1 SXN       0.036700
     92 H33A       -13.1390   -10.2710     1.2690 hc         1 SXN       0.036700
     93 H34        -11.3150   -11.8760     1.8680 hc         1 SXN       0.043700
     94 H38        -10.7540   -12.2790     4.2870 hc         1 SXN       0.031533
     95 H38A       -10.1640   -10.7150     3.7160 hc         1 SXN       0.031533
     96 H38B       -11.6280   -10.7960     4.7250 hc         1 SXN       0.031533
     97 H35        -13.6920   -12.5790     1.9840 hc         1 SXN       0.031533
     98 H35A       -12.7240   -13.4060     3.2190 hc         1 SXN       0.031533
     99 H35B       -13.7820   -12.0530     3.6800 hc         1 SXN       0.031533
    100 H6'A        -6.7240     3.7960    -3.2630 h1         1 SXN       0.069200
    101 H6AA        -8.0040     4.9080    -3.8030 h1         1 SXN       0.069200
    102 H5          -7.2780     4.4130    -0.8750 h1         1 SXN       0.062700
    103 H4'A        -5.3160     5.4830    -1.9510 h1         1 SXN       0.051700
    104 HO4         -6.9700     7.6960    -2.6000 ho         1 SXN       0.509000
    105 H3'A        -5.3280     7.6860    -0.6650 h1         1 SXN       0.081700
    106 HO3         -6.6760     5.7460     0.9070 ho         1 SXN       0.466000
    107 H2'A        -7.4190     8.2020     0.6960 h1         1 SXN       0.055700
    108 HO2         -8.3470     9.3280    -0.9860 ho         1 SXN       0.506000
    109 H1          -9.5940     7.1650    -0.0810 h2         1 SXN       0.071700
    110 H17        -10.8370     6.7830     1.6730 hc         1 SXN       0.047700
    111 H17A       -11.1540     5.5550     2.9030 hc         1 SXN       0.047700
    112 H17B        -9.7100     6.5770     3.0320 hc         1 SXN       0.047700
    113 H16         -9.8370     3.6990    -0.2430 hc         1 SXN       0.047700
    114 H16A       -11.2140     3.7170     0.8720 hc         1 SXN       0.047700
    115 H16B       -10.9400     5.0890    -0.1960 hc         1 SXN       0.047700
    116 H2          -8.2520     4.4910     3.1740 h1         1 SXN       0.081700
    117 HO36       -10.2920     2.5780     2.5440 ho         1 SXN       0.503000
    118 H3          -8.5190     2.2250     1.1260 ha         1 SXN       0.174000
    119 H4          -6.1100     3.7560     2.2940 ha         1 SXN       0.175000
    120 H18         -7.2290     1.8450    -0.6730 hc         1 SXN       0.043033
    121 H18A        -5.6920     1.1210    -1.0520 hc         1 SXN       0.043033
    122 H18B        -6.7480     0.3450     0.1390 hc         1 SXN       0.043033
    123 H6          -4.0210     2.7660     1.9310 ha         1 SXN       0.172000
    124 H7          -3.7260     0.5600    -0.2490 ha         1 SXN       0.175000
    125 H8          -1.7130     2.2280     1.3550 ha         1 SXN       0.171000
    126 H19         -2.1440     0.3210    -1.8150 hc         1 SXN       0.043033
    127 H19A        -0.4980    -0.2300    -1.9530 hc         1 SXN       0.043033
    128 H10          0.5110     1.5210     1.2620 ha         1 SXN       0.169000
    129 H11          1.3870    -0.5510    -0.8950 ha         1 SXN       0.175000
    130 H12          2.9220     1.2190     1.0840 ha         1 SXN       0.171000
    131 H20          3.2220    -0.5130    -2.1890 hc         1 SXN       0.043367
    132 H20A         4.9180    -0.8890    -2.0720 hc         1 SXN       0.043367
    133 H20B         3.7340    -1.9720    -1.3240 hc         1 SXN       0.043367
    134 H14          5.1840     0.6840     1.3760 ha         1 SXN       0.170000
    135 H15          6.6330    -1.1190    -0.7250 ha         1 SXN       0.173000
    136 H47          7.6230     0.5610     1.6380 ha         1 SXN       0.173000
    137 H46          9.0600    -1.2390    -0.4800 ha         1 SXN       0.170000
    138 H45         11.0810     0.0080     3.0410 hc         1 SXN       0.043033
    139 H20C        10.4950     1.4450     2.1840 hc         1 SXN       0.043033
    140 H20D         9.3680     0.3240     2.9650 hc         1 SXN       0.043033
    141 H44         11.3290    -1.7380    -0.2300 ha         1 SXN       0.171000
    142 H43         12.8860     0.0690     1.6970 ha         1 SXN       0.175000
    143 H42         13.7230    -2.1220    -0.3650 ha         1 SXN       0.170000
    144 H41         15.7680    -0.2590     2.5800 hc         1 SXN       0.042700
    145 H19B        16.5860     0.5730     1.2460 hc         1 SXN       0.042700
    146 H19C        14.9100     0.9200     1.5740 hc         1 SXN       0.042700
    147 H40         15.9850    -2.3540    -0.9310 ha         1 SXN       0.177000
    148 H39         17.9690    -1.1850     1.0970 ha         1 SXN       0.179000
    149 H13         21.0340    -2.7020     0.9350 hc         1 SXN       0.037867
    150 H17C        21.7860    -1.1810     0.4320 hc         1 SXN       0.037867
    151 H17D        20.3150    -1.1640     1.4080 hc         1 SXN       0.037867
    152 H21         19.1800     0.3450    -0.2510 hc         1 SXN       0.037867
    153 H16C        20.5500     0.3470    -1.3570 hc         1 SXN       0.037867
    154 H16D        18.9550    -0.1460    -1.9360 hc         1 SXN       0.037867
    155 H37         16.6100    -4.6840    -1.2510 hc         1 SXN       0.048367
    156 H18C        17.6200    -5.7550    -0.2750 hc         1 SXN       0.048367
    157 H18D        16.8770    -4.3620     0.4720 hc         1 SXN       0.048367
    158 H36         21.6450    -4.0400    -0.9120 hc         1 SXN       0.070200
    159 H3A         21.5220    -4.3010    -2.6560 hc         1 SXN       0.070200
    160 H22         20.2380    -2.1350    -2.8470 hc         1 SXN       0.049200
    161 H2A         21.7470    -1.8180    -2.0180 hc         1 SXN       0.049200
    162 H92         -1.6340    -1.1330    -0.9390 hc         1 SXN       0.043033
@<TRIPOS>BOND
     1     1     2 2   
     2     2     3 1   
     3     2    17 1   
     4     3     4 1   
     5     3    71 1   
     6     3    72 1   
     7     4     5 1   
     8     4    73 1   
     9     4    74 1   
    10     5     6 1   
    11     5    75 1   
    12     5    76 1   
    13     6     7 1   
    14     6    77 1   
    15     6    78 1   
    16     7     8 1   
    17     7    79 1   
    18     7    80 1   
    19     8     9 1   
    20     8    81 1   
    21     8    82 1   
    22     9    10 1   
    23     9    83 1   
    24     9    84 1   
    25    10    11 1   
    26    10    85 1   
    27    10    86 1   
    28    11    12 1   
    29    11    87 1   
    30    11    88 1   
    31    12    13 1   
    32    12    89 1   
    33    12    90 1   
    34    13    14 1   
    35    13    91 1   
    36    13    92 1   
    37    14    15 1   
    38    14    16 1   
    39    14    93 1   
    40    15    94 1   
    41    15    95 1   
    42    15    96 1   
    43    16    97 1   
    44    16    98 1   
    45    16    99 1   
    46    17    18 1   
    47    18    19 1   
    48    18   100 1   
    49    18   101 1   
    50    19    20 1   
    51    19    26 1   
    52    19   102 1   
    53    20    21 1   
    54    20    22 1   
    55    20   103 1   
    56    21   104 1   
    57    22    23 1   
    58    22    24 1   
    59    22   105 1   
    60    23   106 1   
    61    24    25 1   
    62    24    27 1   
    63    24   107 1   
    64    25   108 1   
    65    26    27 1   
    66    27    28 1   
    67    27   109 1   
    68    28    29 1   
    69    29    30 1   
    70    29    31 1   
    71    29    32 1   
    72    30   110 1   
    73    30   111 1   
    74    30   112 1   
    75    31   113 1   
    76    31   114 1   
    77    31   115 1   
    78    32    33 1   
    79    32    34 1   
    80    32   116 1   
    81    33   117 1   
    82    34    35 2   
    83    34   118 1   
    84    35    36 1   
    85    35   119 1   
    86    36    37 1   
    87    36    38 2   
    88    37   120 1   
    89    37   121 1   
    90    37   122 1   
    91    38    39 1   
    92    38   123 1   
    93    39    40 2   
    94    39   124 1   
    95    40    41 1   
    96    40   125 1   
    97    41    42 1   
    98    41    43 2   
    99    42   126 1   
   100    42   127 1   
   101    42   162 1   
   102    43    44 1   
   103    43   128 1   
   104    44    45 2   
   105    44   129 1   
   106    45    46 1   
   107    45   130 1   
   108    46    47 1   
   109    46    48 2   
   110    47   131 1   
   111    47   132 1   
   112    47   133 1   
   113    48    49 1   
   114    48   134 1   
   115    49    50 2   
   116    49   135 1   
   117    50    51 1   
   118    50   136 1   
   119    51    52 2   
   120    51   137 1   
   121    52    53 1   
   122    52    54 1   
   123    53   138 1   
   124    53   139 1   
   125    53   140 1   
   126    54    55 2   
   127    54   141 1   
   128    55    56 1   
   129    55   142 1   
   130    56    57 2   
   131    56   143 1   
   132    57    58 1   
   133    57    59 1   
   134    58   144 1   
   135    58   145 1   
   136    58   146 1   
   137    59    60 2   
   138    59   147 1   
   139    60    61 1   
   140    60   148 1   
   141    61    62 1   
   142    61    65 2   
   143    62    63 1   
   144    62    64 1   
   145    62    70 1   
   146    63   149 1   
   147    63   150 1   
   148    63   151 1   
   149    64   152 1   
   150    64   153 1   
   151    64   154 1   
   152    65    66 1   
   153    65    67 1   
   154    66   155 1   
   155    66   156 1   
   156    66   157 1   
   157    67    68 2   
   158    67    69 1   
   159    69    70 1   
   160    69   158 1   
   161    69   159 1   
   162    70   160 1   
   163    70   161 1   
@<TRIPOS>SUBSTRUCTURE
     1 SXN         1 TEMP              0 ****  ****    0 ROOT
