@<TRIPOS>MOLECULE
SXN
  162   163     1     0     0
SMALL
abcg2


@<TRIPOS>ATOM
      1 O37         -8.3730     0.8640    -3.6490 o          1 SXN      -0.483000
      2 C22         -8.6090     1.1980    -2.5150 c          1 SXN       0.594100
      3 C23         -9.3920     0.4000    -1.5090 c3         1 SXN      -0.138400
      4 C24         -9.8450    -0.9630    -2.0050 c3         1 SXN      -0.067400
      5 C25        -10.5630    -1.7380    -0.9060 c3         1 SXN      -0.076400
      6 C26        -11.0380    -3.1160    -1.3470 c3         1 SXN      -0.073400
      7 C27        -11.7230    -3.8860    -0.2240 c3         1 SXN      -0.075400
      8 C28        -12.2080    -5.2700    -0.6360 c3         1 SXN      -0.073400
      9 C29        -12.8750    -6.0270     0.5060 c3         1 SXN      -0.074400
     10 C30        -13.3610    -7.4180     0.1170 c3         1 SXN      -0.073400
     11 C31        -14.0150    -8.1620     1.2740 c3         1 SXN      -0.075400
     12 C32        -14.4890    -9.5640     0.9080 c3         1 SXN      -0.073400
     13 C33        -15.1210   -10.2930     2.0870 c3         1 SXN      -0.072400
     14 C34        -15.6930   -11.6760     1.7680 c3         1 SXN      -0.059700
     15 C38        -14.6250   -12.6370     1.2530 c3         1 SXN      -0.087100
     16 C35        -16.3790   -12.2590     3.0000 c3         1 SXN      -0.087100
     17 O6          -8.1890     2.3440    -1.9890 os         1 SXN      -0.459100
     18 C6'A        -7.3820     3.2130    -2.7860 c3         1 SXN       0.179600
     19 C5'A        -7.0020     4.3760    -1.8980 c6         1 SXN       0.166300
     20 C4'A        -5.8920     5.2290    -2.4950 c6         1 SXN       0.121300
     21 O4          -6.2580     5.5710    -3.8070 oh         1 SXN      -0.697000
     22 C3'A        -5.6480     6.4590    -1.6000 c6         1 SXN       0.147300
     23 O3          -4.9390     6.0950    -0.4390 oh         1 SXN      -0.655000
     24 C2'A        -6.9540     7.1910    -1.2620 c6         1 SXN       0.116300
     25 O2          -7.4050     7.8500    -2.4170 oh         1 SXN      -0.691000
     26 O5          -8.1730     5.1370    -1.6630 os         1 SXN      -0.443000
     27 C1'A        -8.0110     6.1940    -0.7620 c6         1 SXN       0.358300
     28 O1          -7.5860     5.7510     0.4910 os         1 SXN      -0.517000
     29 C1          -8.5350     5.3150     1.4700 c3         1 SXN       0.177000
     30 C17         -9.1500     6.5380     2.1410 c3         1 SXN      -0.116100
     31 C16         -9.6330     4.4260     0.8940 c3         1 SXN      -0.116100
     32 C2          -7.6500     4.5390     2.4800 c3         1 SXN       0.211500
     33 O36         -8.4070     4.0890     3.5830 oh         1 SXN      -0.707000
     34 C3          -6.8990     3.4170     1.8310 c2         1 SXN      -0.252200
     35 C4          -5.5640     3.3640     1.7540 ce         1 SXN      -0.154000
     36 C5          -4.7920     2.3020     1.1270 ce         1 SXN      -0.079200
     37 C18         -5.5410     1.1540     0.5220 c3         1 SXN      -0.057900
     38 C6          -3.4420     2.4110     1.1260 cf         1 SXN      -0.161000
     39 C7          -2.4960     1.4910     0.5570 cf         1 SXN      -0.179000
     40 C8          -1.1610     1.6770     0.6490 ce         1 SXN      -0.165000
     41 C9          -0.1460     0.8110     0.0930 ce         1 SXN      -0.066200
     42 C19         -0.5850    -0.3750    -0.7120 c3         1 SXN      -0.055900
     43 C10          1.1560     1.1210     0.3310 cf         1 SXN      -0.173000
     44 C11          2.3170     0.4190    -0.1320 cf         1 SXN      -0.172000
     45 C12          3.5720     0.7820     0.2220 ce         1 SXN      -0.172000
     46 C13          4.7880     0.1330    -0.2070 ce         1 SXN      -0.062200
     47 C20          4.6830    -1.0160    -1.1650 c3         1 SXN      -0.056900
     48 C14          5.9680     0.5990     0.2860 cf         1 SXN      -0.177000
     49 C15          7.2800     0.1040     0.0010 cf         1 SXN      -0.168000
     50 C55          8.3990     0.6180     0.5670 ce         1 SXN      -0.173000
     51 C54          9.7120     0.1190     0.2870 ce         1 SXN      -0.172000
     52 C52         10.8870     0.5530     0.8170 cf         1 SXN      -0.066200
     53 C53         10.9870     1.6650     1.8170 c3         1 SXN      -0.055900
     54 C51         12.1020    -0.1010     0.3950 cf         1 SXN      -0.167000
     55 C50         13.3490     0.2010     0.8250 ce         1 SXN      -0.177000
     56 C49         14.5110    -0.5050     0.3640 ce         1 SXN      -0.168000
     57 C47         15.8010    -0.2930     0.7250 cf         1 SXN      -0.073200
     58 C48         16.2390     0.7600     1.6960 c3         1 SXN      -0.054900
     59 C46         16.8120    -1.1460     0.1300 cf         1 SXN      -0.159000
     60 C45         18.1350    -1.0540     0.3500 ce         1 SXN      -0.187000
     61 C44         19.1630    -1.8720    -0.2900 ce         1 SXN      -0.013200
     62 C21         20.3910    -1.0890    -0.7500 c6         1 SXN      -0.014800
     63 C36         21.3000    -0.8480     0.4650 c3         1 SXN      -0.082100
     64 C37         19.9890     0.2640    -1.3490 c3         1 SXN      -0.082100
     65 C42         19.0600    -3.2210    -0.4100 cf         1 SXN      -0.189400
     66 C43         17.9090    -4.0350     0.1110 c3         1 SXN      -0.046900
     67 C41         20.1350    -4.0100    -1.0460 c          1 SXN       0.571300
     68 O21         20.0130    -5.2130    -1.2070 o          1 SXN      -0.532100
     69 C40         21.3990    -3.3030    -1.4470 c6         1 SXN      -0.177400
     70 C39         21.1300    -1.8660    -1.8380 c6         1 SXN      -0.064400
     71 H23         -8.7750     0.2920    -0.6100 hc         1 SXN       0.067200
     72 H23A       -10.2530     0.9990    -1.1950 hc         1 SXN       0.067200
     73 H24        -10.5090    -0.8460    -2.8650 hc         1 SXN       0.055700
     74 H24A        -8.9830    -1.5390    -2.3520 hc         1 SXN       0.055700
     75 H25         -9.8920    -1.8450    -0.0470 hc         1 SXN       0.035700
     76 H25A       -11.4200    -1.1570    -0.5490 hc         1 SXN       0.035700
     77 H26        -11.7270    -3.0120    -2.1920 hc         1 SXN       0.041200
     78 H26A       -10.1850    -3.6950    -1.7170 hc         1 SXN       0.041200
     79 H27        -11.0300    -3.9830     0.6190 hc         1 SXN       0.036700
     80 H27A       -12.5720    -3.3020     0.1490 hc         1 SXN       0.036700
     81 H28        -12.9110    -5.1760    -1.4710 hc         1 SXN       0.038700
     82 H28A       -11.3620    -5.8540    -1.0150 hc         1 SXN       0.038700
     83 H29        -12.1710    -6.1120     1.3410 hc         1 SXN       0.036700
     84 H29A       -13.7210    -5.4410     0.8830 hc         1 SXN       0.036700
     85 H30        -14.0710    -7.3370    -0.7130 hc         1 SXN       0.037700
     86 H30A       -12.5160    -8.0050    -0.2610 hc         1 SXN       0.037700
     87 H31        -13.3060    -8.2300     2.1060 hc         1 SXN       0.036700
     88 H31A       -14.8640    -7.5780     1.6470 hc         1 SXN       0.036700
     89 H32        -15.2110    -9.5020     0.0850 hc         1 SXN       0.038200
     90 H32A       -13.6390   -10.1360     0.5240 hc         1 SXN       0.038200
     91 H33        -14.3780   -10.3960     2.8870 hc         1 SXN       0.036700
     92 H33A       -15.9230    -9.6700     2.4980 hc         1 SXN       0.036700
     93 H34        -16.4490   -11.5550     0.9830 hc         1 SXN       0.043700
     94 H38        -15.0410   -13.6320     1.0840 hc         1 SXN       0.031533
     95 H38A       -14.1890   -12.3040     0.3100 hc         1 SXN       0.031533
     96 H38B       -13.8110   -12.7370     1.9760 hc         1 SXN       0.031533
     97 H35        -17.1780   -11.6090     3.3590 hc         1 SXN       0.031533
     98 H35A       -16.8180   -13.2360     2.7880 hc         1 SXN       0.031533
     99 H35B       -15.6660   -12.3880     3.8180 hc         1 SXN       0.031533
    100 H6'A        -6.4800     2.6920    -3.1180 h1         1 SXN       0.069200
    101 H6AA        -7.9320     3.5420    -3.6690 h1         1 SXN       0.069200
    102 H5          -6.6230     3.9550    -0.9570 h1         1 SXN       0.062700
    103 H4'A        -4.9680     4.6310    -2.4830 h1         1 SXN       0.051700
    104 HO4         -5.6410     6.2300    -4.1400 ho         1 SXN       0.509000
    105 H3'A        -5.0000     7.1580    -2.1420 h1         1 SXN       0.081700
    106 HO3         -5.5440     5.6570     0.1720 ho         1 SXN       0.466000
    107 H2'A        -6.7500     7.9050    -0.4530 h1         1 SXN       0.055700
    108 HO2         -8.0570     8.5070    -2.1540 ho         1 SXN       0.506000
    109 H1          -8.9900     6.6860    -0.7080 h2         1 SXN       0.071700
    110 H17         -9.7030     7.1440     1.4200 hc         1 SXN       0.047700
    111 H17A        -9.8490     6.2460     2.9230 hc         1 SXN       0.047700
    112 H17B        -8.3810     7.1690     2.5910 hc         1 SXN       0.047700
    113 H16         -9.2440     3.5570     0.3650 hc         1 SXN       0.047700
    114 H16A       -10.2780     4.0740     1.7010 hc         1 SXN       0.047700
    115 H16B       -10.2780     4.9710     0.2050 hc         1 SXN       0.047700
    116 H2          -6.9280     5.2550     2.8890 h1         1 SXN       0.081700
    117 HO36        -8.8890     3.2950     3.3310 ho         1 SXN       0.503000
    118 H3          -7.4940     2.6100     1.4140 ha         1 SXN       0.174000
    119 H4          -4.9880     4.1780     2.1900 ha         1 SXN       0.175000
    120 H18         -6.2610     1.5030    -0.2210 hc         1 SXN       0.043033
    121 H18A        -4.8940     0.4330     0.0310 hc         1 SXN       0.043033
    122 H18B        -6.1140     0.6190     1.2840 hc         1 SXN       0.043033
    123 H6          -3.0130     3.2880     1.6040 ha         1 SXN       0.172000
    124 H7          -2.8750     0.6160     0.0400 ha         1 SXN       0.175000
    125 H8          -0.8010     2.5530     1.1830 ha         1 SXN       0.171000
    126 H19         -1.1590    -0.0630    -1.5870 hc         1 SXN       0.043033
    127 H19A         0.2470    -0.9790    -1.0650 hc         1 SXN       0.043033
    128 H10          1.3510     1.9980     0.9440 ha         1 SXN       0.169000
    129 H11          2.1800    -0.4300    -0.7910 ha         1 SXN       0.175000
    130 H12          3.6910     1.6300     0.8920 ha         1 SXN       0.171000
    131 H20          4.1860    -0.7080    -2.0870 hc         1 SXN       0.043367
    132 H20A         5.6510    -1.4300    -1.4370 hc         1 SXN       0.043367
    133 H20B         4.0880    -1.8270    -0.7410 hc         1 SXN       0.043367
    134 H14          5.9200     1.4350     0.9790 ha         1 SXN       0.170000
    135 H15          7.3890    -0.7210    -0.6950 ha         1 SXN       0.173000
    136 H47          8.2900     1.4400     1.2660 ha         1 SXN       0.173000
    137 H46          9.7610    -0.6990    -0.4280 ha         1 SXN       0.170000
    138 H45         11.4460     1.3150     2.7440 hc         1 SXN       0.043033
    139 H20C        11.6160     2.4750     1.4410 hc         1 SXN       0.043033
    140 H20D        10.0210     2.0940     2.0720 hc         1 SXN       0.043033
    141 H44         11.9900    -0.9030    -0.3300 ha         1 SXN       0.171000
    142 H43         13.4800     0.9990     1.5460 ha         1 SXN       0.175000
    143 H42         14.3220    -1.2990    -0.3540 ha         1 SXN       0.170000
    144 H41         16.7530     0.3150     2.5510 hc         1 SXN       0.042700
    145 H19B        16.9440     1.4520     1.2280 hc         1 SXN       0.042700
    146 H19C        15.4120     1.3490     2.0840 hc         1 SXN       0.042700
    147 H40         16.4450    -1.8920    -0.5670 ha         1 SXN       0.177000
    148 H39         18.5030    -0.2570     0.9890 ha         1 SXN       0.179000
    149 H13         21.6370    -1.7810     0.9190 hc         1 SXN       0.037867
    150 H17C        22.1830    -0.2800     0.1670 hc         1 SXN       0.037867
    151 H17D        20.7880    -0.2730     1.2380 hc         1 SXN       0.037867
    152 H21         19.5570     0.9410    -0.6130 hc         1 SXN       0.037867
    153 H16C        20.8730     0.7550    -1.7630 hc         1 SXN       0.037867
    154 H16D        19.2670     0.1400    -2.1570 hc         1 SXN       0.037867
    155 H37         17.1930    -4.2770    -0.6770 hc         1 SXN       0.048367
    156 H18C        18.2600    -4.9830     0.5170 hc         1 SXN       0.048367
    157 H18D        17.3630    -3.5140     0.8940 hc         1 SXN       0.048367
    158 H36         22.0860    -3.3520    -0.5950 hc         1 SXN       0.070200
    159 H3A         21.8760    -3.8570    -2.2570 hc         1 SXN       0.070200
    160 H22         20.5270    -1.8530    -2.7520 hc         1 SXN       0.049200
    161 H2A         22.0660    -1.3550    -2.0760 hc         1 SXN       0.049200
    162 H92         -1.2340    -1.0270    -0.1240 hc         1 SXN       0.043033
@<TRIPOS>BOND
     1     1     2 2   
     2     2     3 1   
     3     2    17 1   
     4     3     4 1   
     5     3    71 1   
     6     3    72 1   
     7     4     5 1   
     8     4    73 1   
     9     4    74 1   
    10     5     6 1   
    11     5    75 1   
    12     5    76 1   
    13     6     7 1   
    14     6    77 1   
    15     6    78 1   
    16     7     8 1   
    17     7    79 1   
    18     7    80 1   
    19     8     9 1   
    20     8    81 1   
    21     8    82 1   
    22     9    10 1   
    23     9    83 1   
    24     9    84 1   
    25    10    11 1   
    26    10    85 1   
    27    10    86 1   
    28    11    12 1   
    29    11    87 1   
    30    11    88 1   
    31    12    13 1   
    32    12    89 1   
    33    12    90 1   
    34    13    14 1   
    35    13    91 1   
    36    13    92 1   
    37    14    15 1   
    38    14    16 1   
    39    14    93 1   
    40    15    94 1   
    41    15    95 1   
    42    15    96 1   
    43    16    97 1   
    44    16    98 1   
    45    16    99 1   
    46    17    18 1   
    47    18    19 1   
    48    18   100 1   
    49    18   101 1   
    50    19    20 1   
    51    19    26 1   
    52    19   102 1   
    53    20    21 1   
    54    20    22 1   
    55    20   103 1   
    56    21   104 1   
    57    22    23 1   
    58    22    24 1   
    59    22   105 1   
    60    23   106 1   
    61    24    25 1   
    62    24    27 1   
    63    24   107 1   
    64    25   108 1   
    65    26    27 1   
    66    27    28 1   
    67    27   109 1   
    68    28    29 1   
    69    29    30 1   
    70    29    31 1   
    71    29    32 1   
    72    30   110 1   
    73    30   111 1   
    74    30   112 1   
    75    31   113 1   
    76    31   114 1   
    77    31   115 1   
    78    32    33 1   
    79    32    34 1   
    80    32   116 1   
    81    33   117 1   
    82    34    35 2   
    83    34   118 1   
    84    35    36 1   
    85    35   119 1   
    86    36    37 1   
    87    36    38 2   
    88    37   120 1   
    89    37   121 1   
    90    37   122 1   
    91    38    39 1   
    92    38   123 1   
    93    39    40 2   
    94    39   124 1   
    95    40    41 1   
    96    40   125 1   
    97    41    42 1   
    98    41    43 2   
    99    42   126 1   
   100    42   127 1   
   101    42   162 1   
   102    43    44 1   
   103    43   128 1   
   104    44    45 2   
   105    44   129 1   
   106    45    46 1   
   107    45   130 1   
   108    46    47 1   
   109    46    48 2   
   110    47   131 1   
   111    47   132 1   
   112    47   133 1   
   113    48    49 1   
   114    48   134 1   
   115    49    50 2   
   116    49   135 1   
   117    50    51 1   
   118    50   136 1   
   119    51    52 2   
   120    51   137 1   
   121    52    53 1   
   122    52    54 1   
   123    53   138 1   
   124    53   139 1   
   125    53   140 1   
   126    54    55 2   
   127    54   141 1   
   128    55    56 1   
   129    55   142 1   
   130    56    57 2   
   131    56   143 1   
   132    57    58 1   
   133    57    59 1   
   134    58   144 1   
   135    58   145 1   
   136    58   146 1   
   137    59    60 2   
   138    59   147 1   
   139    60    61 1   
   140    60   148 1   
   141    61    62 1   
   142    61    65 2   
   143    62    63 1   
   144    62    64 1   
   145    62    70 1   
   146    63   149 1   
   147    63   150 1   
   148    63   151 1   
   149    64   152 1   
   150    64   153 1   
   151    64   154 1   
   152    65    66 1   
   153    65    67 1   
   154    66   155 1   
   155    66   156 1   
   156    66   157 1   
   157    67    68 2   
   158    67    69 1   
   159    69    70 1   
   160    69   158 1   
   161    69   159 1   
   162    70   160 1   
   163    70   161 1   
@<TRIPOS>SUBSTRUCTURE
     1 SXN         1 TEMP              0 ****  ****    0 ROOT
