@<TRIPOS>MOLECULE
SXP
   62    66     1     0     0
SMALL
No Charge or Current Charge


@<TRIPOS>ATOM
      1 N3          -2.7730     8.4260    13.9930 na         1 SXP       0.149800
      2 C18         -6.4480     8.9740    12.8080 c6         1 SXP       0.112000
      3 C17         -5.2910     8.5300    13.7730 c6         1 SXP       0.161300
      4 C15         -6.0980     9.3300    17.4800 c          1 SXP       0.715000
      5 C19         -4.9620     8.9170    10.8660 c6         1 SXP       0.168300
      6 C20         -4.9470     8.4970     9.3580 c3         1 SXP       0.169600
      7 C21         -3.7760     8.3220    11.6890 c6         1 SXP       0.129300
      8 C22         -3.9040     8.8670    13.1400 c6         1 SXP       0.041300
      9 C23         -2.6250     7.1900    14.5780 cc         1 SXP      -0.162000
     10 C24         -1.4390     7.2880    15.2500 cd         1 SXP       0.231500
     11 C34         -9.0270    10.5960    12.9270 ca         1 SXP       0.024800
     12 C27          1.0820     5.5050    17.4720 ca         1 SXP       0.202500
     13 O5          -5.2390    10.1870    17.6510 o          1 SXP      -0.714500
     14 O6          -5.3590     9.1950    15.0630 os         1 SXP      -0.431000
     15 C31         -7.8080     8.5000    13.2950 cc         1 SXP       0.476800
     16 N8          -8.9410     9.2760    13.3660 na         1 SXP       0.025500
     17 C39         -8.9950    11.6740    13.8410 ca         1 SXP       0.135000
     18 Cl2         -8.8490    11.3960    15.5770 cl         1 SXP      -0.139000
     19 C38         -9.0650    12.9970    13.3710 ca         1 SXP      -0.102000
     20 C37         -9.1660    13.2530    11.9920 ca         1 SXP      -0.095000
     21 C36         -9.1940    12.1840    11.0820 ca         1 SXP       0.114000
     22 Cl1         -9.3150    12.5040     9.3580 cl         1 SXP      -0.194000
     23 C35         -9.1240    10.8610    11.5450 ca         1 SXP      -0.081000
     24 N7         -10.0440     8.6040    13.7610 nc         1 SXP      -0.527800
     25 C32         -9.5210     7.4040    13.9600 cd         1 SXP       0.543300
     26 N6          -8.1720     7.2810    13.6730 nd         1 SXP      -0.674000
     27 O9          -3.7870     6.8750    11.6930 oh         1 SXP      -0.705000
     28 O8          -6.0270     9.0760     8.5980 oh         1 SXP      -0.714000
     29 O7          -6.2160     8.4960    11.4530 os         1 SXP      -0.430000
     30 N5          -1.7180     9.2380    14.2930 nc         1 SXP      -0.180800
     31 N4          -0.9120     8.5490    15.0540 nd         1 SXP      -0.342000
     32 C25         -0.7790     6.2440    16.0630 ca         1 SXP      -0.010500
     33 C30         -1.3680     4.9700    16.2200 ca         1 SXP      -0.149000
     34 C29         -0.7380     3.9800    16.9920 ca         1 SXP       0.202500
     35 F1          -1.3280     2.7700    17.1230 f          1 SXP      -0.167500
     36 C28          0.4910     4.2390    17.6250 ca         1 SXP      -0.001000
     37 Cl           1.2810     2.9900    18.5960 cl         1 SXP      -0.167000
     38 C26          0.4560     6.4980    16.7010 ca         1 SXP      -0.149000
     39 H25         -6.4420    10.0730    12.7750 h1         1 SXP       0.057700
     40 H24         -5.3550     7.4430    13.9260 h1         1 SXP       0.077700
     41 H22         -7.3230     8.8970    15.7680 h1         1 SXP       0.020700
     42 H23         -6.1730     7.6090    16.1740 h1         1 SXP       0.020700
     43 O1          -6.8270     8.9320    18.3790 o          1 SXP      -0.714500
     44 H26         -4.9080    10.0160    10.9000 h1         1 SXP       0.053700
     45 H28         -4.9980     7.4020     9.3030 h1         1 SXP       0.032700
     46 H27         -3.9820     8.8020     8.9290 h1         1 SXP       0.032700
     47 H30         -2.8300     8.6910    11.2640 h1         1 SXP       0.045700
     48 H32         -3.8410     9.9630    13.0810 h1         1 SXP       0.103700
     49 H33         -3.3340     6.3830    14.4660 h4         1 SXP       0.174000
     50 H38        -11.0730     5.9520    13.6590 hc         1 SXP       0.053367
     51 H36         -9.7330     5.3820    14.6690 hc         1 SXP       0.053367
     52 H37        -10.9180     6.5200    15.3320 hc         1 SXP       0.053367
     53 H41         -9.0390    13.8240    14.0770 ha         1 SXP       0.134000
     54 H40         -9.2190    14.2770    11.6290 ha         1 SXP       0.129000
     55 H39         -9.1440    10.0410    10.8310 ha         1 SXP       0.165000
     56 H31         -3.3490     6.5700    10.8650 ho         1 SXP       0.505000
     57 H29         -5.9750     8.6980     7.6900 ho         1 SXP       0.501000
     58 H35         -2.3160     4.7340    15.7460 ha         1 SXP       0.149500
     59 H34          0.9400     7.4660    16.6040 ha         1 SXP       0.149500
     60 C16         -6.2880     8.6950    16.0630 c3         1 SXP       0.010600
     61 C33        -10.3560     6.2520    14.4310 c3         1 SXP      -0.110400
     62 F            2.2640     5.7800    18.0700 f          1 SXP      -0.167500
@<TRIPOS>BOND
     1     1     8 1   
     2     1     9 1   
     3     1    30 1   
     4     2     3 1   
     5     2    15 1   
     6     2    29 1   
     7     2    39 1   
     8     3     8 1   
     9     3    14 1   
    10     3    40 1   
    11     4    13 1   
    12     4    43 1   
    13     4    60 1   
    14     5     6 1   
    15     5     7 1   
    16     5    29 1   
    17     5    44 1   
    18     6    28 1   
    19     6    45 1   
    20     6    46 1   
    21     7     8 1   
    22     7    27 1   
    23     7    47 1   
    24     8    48 1   
    25     9    10 2   
    26     9    49 1   
    27    10    31 1   
    28    10    32 1   
    29    11    16 1   
    30    11    17 ar  
    31    11    23 ar  
    32    12    36 ar  
    33    12    38 ar  
    34    12    62 1   
    35    14    60 1   
    36    15    16 1   
    37    15    26 2   
    38    16    24 1   
    39    17    18 1   
    40    17    19 ar  
    41    19    20 ar  
    42    19    53 1   
    43    20    21 ar  
    44    20    54 1   
    45    21    22 1   
    46    21    23 ar  
    47    23    55 1   
    48    24    25 2   
    49    25    26 1   
    50    25    61 1   
    51    27    56 1   
    52    28    57 1   
    53    30    31 2   
    54    32    33 ar  
    55    32    38 ar  
    56    33    34 ar  
    57    33    58 1   
    58    34    35 1   
    59    34    36 ar  
    60    36    37 1   
    61    38    59 1   
    62    41    60 1   
    63    42    60 1   
    64    50    61 1   
    65    51    61 1   
    66    52    61 1   
@<TRIPOS>SUBSTRUCTURE
     1 SXP         1 TEMP              0 ****  ****    0 ROOT
