@<TRIPOS>MOLECULE
SXP
   62    66     1     0     0
SMALL
abcg2


@<TRIPOS>ATOM
      1 N3          -3.0010     8.3620    14.0550 na         1 SXP       0.149800
      2 C18         -6.5260     9.0150    12.9200 c6         1 SXP       0.112000
      3 C17         -5.4460     8.4390    13.8410 c6         1 SXP       0.161300
      4 C15         -5.0130     8.3640    17.4450 c          1 SXP       0.715000
      5 C19         -5.1660     8.9570    11.0120 c6         1 SXP       0.168300
      6 C20         -5.1830     8.5390     9.5580 c3         1 SXP       0.169600
      7 C21         -3.9690     8.3960    11.7760 c6         1 SXP       0.129300
      8 C22         -4.0970     8.8420    13.2390 c6         1 SXP       0.041300
      9 C23         -2.7630     7.1290    14.5250 cc         1 SXP      -0.162000
     10 C24         -1.6220     7.2740    15.2780 cd         1 SXP       0.231500
     11 C34         -9.0270    10.7180    12.5990 ca         1 SXP       0.024800
     12 C27          0.7500     5.7820    17.7340 ca         1 SXP       0.202500
     13 O5          -4.1420     9.2460    17.4020 o          1 SXP      -0.714500
     14 O6          -5.5640     8.9760    15.1190 os         1 SXP      -0.431000
     15 C31         -7.8990     8.6450    13.3640 cc         1 SXP       0.476800
     16 N8          -8.9730     9.4300    13.1690 na         1 SXP       0.025500
     17 C39         -9.3490    11.8210    13.3850 ca         1 SXP       0.135000
     18 CL2         -9.6450    11.6310    15.0680 cl         1 SXP      -0.139000
     19 C38         -9.3960    13.0830    12.8160 ca         1 SXP      -0.102000
     20 C37         -9.1050    13.2520    11.4720 ca         1 SXP      -0.095000
     21 C36         -8.7640    12.1500    10.7040 ca         1 SXP       0.114000
     22 CL1         -8.3850    12.3570     9.0330 cl         1 SXP      -0.194000
     23 C35         -8.7300    10.8790    11.2540 ca         1 SXP      -0.081000
     24 N7         -10.0750     8.8200    13.6330 nc         1 SXP      -0.527800
     25 C32         -9.6160     7.6790    14.0900 cd         1 SXP       0.543300
     26 N6          -8.2760     7.5320    13.9380 nd         1 SXP      -0.674000
     27 O9          -3.9460     6.9940    11.6750 oh         1 SXP      -0.705000
     28 O8          -6.2140     9.2440     8.9090 oh         1 SXP      -0.714000
     29 O7          -6.3760     8.5300    11.6080 os         1 SXP      -0.430000
     30 N5          -2.0790     9.2150    14.4760 nc         1 SXP      -0.180800
     31 N4          -1.2460     8.5700    15.2090 nd         1 SXP      -0.342000
     32 C25         -0.8860     6.2900    16.0620 ca         1 SXP      -0.010500
     33 C30         -1.1310     4.9270    15.9040 ca         1 SXP      -0.149000
     34 C29         -0.4280     4.0230    16.6680 ca         1 SXP       0.202500
     35 F1          -0.6520     2.7200    16.5170 f          1 SXP      -0.167500
     36 C28          0.5230     4.4220    17.5950 ca         1 SXP      -0.001000
     37 CL           1.3830     3.2750    18.5300 cl         1 SXP      -0.167000
     38 C26          0.0670     6.7160    16.9870 ca         1 SXP      -0.149000
     39 H25         -6.4330    10.1130    12.9380 h1         1 SXP       0.057700
     40 H24         -5.5450     7.3460    13.8430 h1         1 SXP       0.077700
     41 H22         -6.9160     8.1510    16.4420 h1         1 SXP       0.020700
     42 H23         -5.6760     7.0490    15.8790 h1         1 SXP       0.020700
     43 O1          -5.3160     7.6300    18.4070 o          1 SXP      -0.714500
     44 H26         -5.0960    10.0560    11.0590 h1         1 SXP       0.053700
     45 H28         -5.3220     7.4550     9.4870 h1         1 SXP       0.032700
     46 H27         -4.1980     8.7690     9.1290 h1         1 SXP       0.032700
     47 H30         -3.0600     8.8440    11.3570 h1         1 SXP       0.045700
     48 H32         -4.0170     9.9330    13.2710 h1         1 SXP       0.103700
     49 H33         -3.4000     6.2840    14.3270 h4         1 SXP       0.174000
     50 H38        -11.5190     6.9650    14.7240 hc         1 SXP       0.053367
     51 H36        -10.4050     5.7020    14.1870 hc         1 SXP       0.053367
     52 H37        -10.1700     6.4690    15.7500 hc         1 SXP       0.053367
     53 H41         -9.6480    13.9420    13.4220 ha         1 SXP       0.134000
     54 H40         -9.1370    14.2400    11.0350 ha         1 SXP       0.129000
     55 H39         -8.4640    10.0190    10.6550 ha         1 SXP       0.165000
     56 H31         -3.0360     6.6990    11.5790 ho         1 SXP       0.505000
     57 H29         -6.2740     8.9260     8.0040 ho         1 SXP       0.501000
     58 H35         -1.8540     4.5590    15.1880 ha         1 SXP       0.149500
     59 H34          0.2710     7.7680    17.1330 ha         1 SXP       0.149500
     60 C16         -5.8530     8.0870    16.1830 c3         1 SXP       0.010600
     61 C33        -10.4790     6.6490    14.7200 c3         1 SXP      -0.110400
     62 F            1.6530     6.1870    18.6240 f          1 SXP      -0.167500
@<TRIPOS>BOND
     1     1     8 1   
     2     1     9 1   
     3     1    30 1   
     4     2     3 1   
     5     2    15 1   
     6     2    29 1   
     7     2    39 1   
     8     3     8 1   
     9     3    14 1   
    10     3    40 1   
    11     4    13 1   
    12     4    43 1   
    13     4    60 1   
    14     5     6 1   
    15     5     7 1   
    16     5    29 1   
    17     5    44 1   
    18     6    28 1   
    19     6    45 1   
    20     6    46 1   
    21     7     8 1   
    22     7    27 1   
    23     7    47 1   
    24     8    48 1   
    25     9    10 2   
    26     9    49 1   
    27    10    31 1   
    28    10    32 1   
    29    11    16 1   
    30    11    17 ar  
    31    11    23 ar  
    32    12    36 ar  
    33    12    38 ar  
    34    12    62 1   
    35    14    60 1   
    36    15    16 1   
    37    15    26 2   
    38    16    24 1   
    39    17    18 1   
    40    17    19 ar  
    41    19    20 ar  
    42    19    53 1   
    43    20    21 ar  
    44    20    54 1   
    45    21    22 1   
    46    21    23 ar  
    47    23    55 1   
    48    24    25 2   
    49    25    26 1   
    50    25    61 1   
    51    27    56 1   
    52    28    57 1   
    53    30    31 2   
    54    32    33 ar  
    55    32    38 ar  
    56    33    34 ar  
    57    33    58 1   
    58    34    35 1   
    59    34    36 ar  
    60    36    37 1   
    61    38    59 1   
    62    41    60 1   
    63    42    60 1   
    64    50    61 1   
    65    51    61 1   
    66    52    61 1   
@<TRIPOS>SUBSTRUCTURE
     1 SXP         1 TEMP              0 ****  ****    0 ROOT
