@<TRIPOS>MOLECULE
SXQ
   25    27     1     0     0
SMALL
No Charge or Current Charge


@<TRIPOS>ATOM
      1 C02         30.3110    66.9100    73.5560 ca         1 SXQ       0.137000
      2 C03         29.2340    67.5910    74.1490 ca         1 SXQ      -0.106000
      3 C04         28.4500    68.4760    73.3880 ca         1 SXQ      -0.060000
      4 C05         28.7390    68.6780    72.0220 ca         1 SXQ      -0.154000
      5 C06         29.8270    68.0060    71.4340 ca         1 SXQ      -0.053000
      6 C07         30.6110    67.1210    72.1940 ca         1 SXQ       0.103000
      7 C10         26.2660    68.9870    71.4640 cc         1 SXQ       0.352300
      8 C13         23.0720    69.6230    73.1580 c          1 SXQ       0.543800
      9 C17         23.9480    67.8180    72.0960 cd         1 SXQ      -0.086000
     10 C18         24.8740    67.0150    71.3640 cd         1 SXQ      -0.055000
     11 C19         26.0540    67.6340    71.0420 cc         1 SXQ      -0.109000
     12 N11         25.4120    69.7650    72.1240 nd         1 SXQ      -0.360800
     13 N12         24.1950    69.1450    72.4660 n          1 SXQ       0.077000
     14 N15         22.2600    68.5240    73.1360 ns         1 SXQ      -0.368400
     15 N16         22.7530    67.4240    72.5060 nc         1 SXQ      -0.174600
     16 O14         22.8590    70.7210    73.6560 o          1 SXQ      -0.508000
     17 S09         27.7620    69.8050    71.0200 ss         1 SXQ      -0.079300
     18 Cl1         31.2740    65.8070    74.5400 cl         1 SXQ      -0.156000
     19 Cl2         31.9600    66.2900    71.4190 cl         1 SXQ      -0.159000
     20 H1          29.0090    67.4340    75.2010 ha         1 SXQ       0.139000
     21 H2          27.6280    69.0050    73.8660 ha         1 SXQ       0.138000
     22 H3          30.0630    68.1650    70.3840 ha         1 SXQ       0.147000
     23 H4          24.6590    65.9890    71.0790 ha         1 SXQ       0.151000
     24 H5          26.8280    67.1200    70.4830 ha         1 SXQ       0.143000
     25 H6          21.3380    68.5400    73.5680 hn         1 SXQ       0.496000
@<TRIPOS>BOND
     1     1     2 ar  
     2     1     6 ar  
     3     1    18 1   
     4     2     3 ar  
     5     2    20 1   
     6     3     4 ar  
     7     3    21 1   
     8     4     5 ar  
     9     4    17 1   
    10     5     6 ar  
    11     5    22 1   
    12     6    19 1   
    13     7    11 1   
    14     7    12 2   
    15     7    17 1   
    16     8    13 1   
    17     8    14 1   
    18     8    16 2   
    19     9    10 1   
    20     9    13 1   
    21     9    15 2   
    22    10    11 2   
    23    10    23 1   
    24    11    24 1   
    25    12    13 1   
    26    14    15 1   
    27    14    25 1   
@<TRIPOS>SUBSTRUCTURE
     1 SXQ         1 TEMP              0 ****  ****    0 ROOT
