@<TRIPOS>MOLECULE
SXQ
   25    27     1     0     0
SMALL
abcg2


@<TRIPOS>ATOM
      1 C02         30.7150    66.8250    73.2240 ca         1 SXQ       0.137000
      2 C03         29.7800    67.3550    74.1030 ca         1 SXQ      -0.106000
      3 C04         28.8400    68.2640    73.6530 ca         1 SXQ      -0.060000
      4 C05         28.8170    68.6230    72.3090 ca         1 SXQ      -0.154000
      5 C06         29.7460    68.0960    71.4250 ca         1 SXQ      -0.053000
      6 C07         30.7020    67.2020    71.8860 ca         1 SXQ       0.103000
      7 C10         26.1250    68.9770    71.9590 cc         1 SXQ       0.352300
      8 C13         22.7350    69.8180    72.4870 c          1 SXQ       0.543800
      9 C17         23.6930    67.8040    72.1960 cd         1 SXQ      -0.086000
     10 C18         24.8110    66.9540    71.9660 cd         1 SXQ      -0.055000
     11 C19         26.0170    67.5410    71.8420 cc         1 SXQ      -0.109000
     12 N11         25.1260    69.7600    72.1770 nd         1 SXQ      -0.360800
     13 N12         23.9410    69.1550    72.2710 n          1 SXQ       0.077000
     14 N15         21.8700    68.7720    72.5170 ns         1 SXQ      -0.368400
     15 N16         22.4330    67.5500    72.3450 nc         1 SXQ      -0.174600
     16 O14         22.5470    71.0090    72.6090 o          1 SXQ      -0.508000
     17 S09         27.6560    69.8140    71.7040 ss         1 SXQ      -0.079300
     18 CL1         31.8800    65.7060    73.8030 cl         1 SXQ      -0.156000
     19 CL2         31.8530    66.5620    70.7820 cl         1 SXQ      -0.159000
     20 H1          29.7980    67.0650    75.1450 ha         1 SXQ       0.139000
     21 H2          28.1280    68.6870    74.3490 ha         1 SXQ       0.138000
     22 H3          29.7260    68.3680    70.3780 ha         1 SXQ       0.147000
     23 H4          24.6710    65.8860    71.8810 ha         1 SXQ       0.151000
     24 H5          26.9010    66.9520    71.6470 ha         1 SXQ       0.143000
     25 H6          20.8740    68.8480    72.6550 hn         1 SXQ       0.496000
@<TRIPOS>BOND
     1     1     2 ar  
     2     1     6 ar  
     3     1    18 1   
     4     2     3 ar  
     5     2    20 1   
     6     3     4 ar  
     7     3    21 1   
     8     4     5 ar  
     9     4    17 1   
    10     5     6 ar  
    11     5    22 1   
    12     6    19 1   
    13     7    11 1   
    14     7    12 2   
    15     7    17 1   
    16     8    13 1   
    17     8    14 1   
    18     8    16 2   
    19     9    10 1   
    20     9    13 1   
    21     9    15 2   
    22    10    11 2   
    23    10    23 1   
    24    11    24 1   
    25    12    13 1   
    26    14    15 1   
    27    14    25 1   
@<TRIPOS>SUBSTRUCTURE
     1 SXQ         1 TEMP              0 ****  ****    0 ROOT
