@<TRIPOS>MOLECULE
SXR
   68    68     1     0     0
SMALL
No Charge or Current Charge


@<TRIPOS>ATOM
      1 P24          8.0470     3.4130    -0.1720 p3         1 SXR       0.192300
      2 O26          7.1490     4.8160    -0.2070 oh         1 SXR      -0.528100
      3 O23          9.4660     3.8680     0.5730 oh         1 SXR      -0.528100
      4 O27          7.2800     2.4740     0.9670 os         1 SXR      -0.325100
      5 C28          6.8500     1.1440     0.6370 c3         1 SXR       0.195600
      6 C29          6.1670     0.4900     1.8840 c3         1 SXR      -0.082000
      7 C30          7.1670     0.4480     3.0790 c3         1 SXR      -0.083600
      8 C31          4.9360     1.3440     2.3140 c3         1 SXR      -0.083600
      9 C32          5.6960    -0.9760     1.5520 c3         1 SXR       0.099300
     10 O33          6.8310    -1.8030     1.1870 oh         1 SXR      -0.651000
     11 C34          4.5820    -1.0510     0.4530 c          1 SXR       0.564100
     12 O35          4.8440    -1.0380    -0.7440 o          1 SXR      -0.611100
     13 N36          3.2900    -1.2080     0.9140 ns         1 SXR      -0.495900
     14 C37          2.1100    -1.3470     0.0570 c3         1 SXR       0.114000
     15 C38          1.9590    -2.7820    -0.4780 c3         1 SXR      -0.187400
     16 C39          0.7030    -2.9050    -1.3360 c          1 SXR       0.600100
     17 O40          0.6280    -2.4330    -2.4600 o          1 SXR      -0.594100
     18 N41         -0.3270    -3.6170    -0.7650 ns         1 SXR      -0.509900
     19 C42         -1.6290    -3.8580    -1.4000 c3         1 SXR       0.115000
     20 C43         -2.5140    -2.5950    -1.4360 c3         1 SXR       0.039600
     21 S1          -4.1620    -2.9700    -2.1910 ss         1 SXR      -0.448000
     22 C11         -8.4640     0.4340     1.8810 ca         1 SXR      -0.107000
     23 C10         -9.3610     0.6970     2.9310 ca         1 SXR      -0.109000
     24 C9         -10.1010     1.8910     2.9420 ca         1 SXR      -0.110000
     25 C8          -9.9450     2.8220     1.9010 ca         1 SXR      -0.109000
     26 C7          -9.0490     2.5590     0.8500 ca         1 SXR      -0.107000
     27 C6          -8.3020     1.3650     0.8350 ca         1 SXR      -0.085300
     28 C5          -7.3350     1.0770    -0.3050 c3         1 SXR      -0.020100
     29 C4          -8.0140     0.2960    -1.4520 c3         1 SXR      -0.180400
     30 C3          -7.0380     0.0250    -2.6060 c          1 SXR       0.571100
     31 O3          -6.8050     0.8770    -3.4540 o          1 SXR      -0.521100
     32 C2          -6.3720    -1.3540    -2.6630 c3         1 SXR      -0.176400
     33 C1          -4.9450    -1.2980    -2.0900 c3         1 SXR       0.080600
     34 H1           6.8670     4.9710    -1.1340 ho         1 SXR       0.461500
     35 H2          10.2110     3.6000    -0.0070 ho         1 SXR       0.461500
     36 H28A         6.1420     1.1800    -0.2010 h1         1 SXR       0.046700
     37 H28B         7.7120     0.5400     0.3250 h1         1 SXR       0.046700
     38 H30A         7.4420     1.4580     3.4050 hc         1 SXR       0.040533
     39 H30B         6.7260    -0.0690     3.9400 hc         1 SXR       0.040533
     40 H30C         8.0920    -0.0750     2.8080 hc         1 SXR       0.040533
     41 H31A         4.2380     1.4900     1.4810 hc         1 SXR       0.040533
     42 H31B         4.3920     0.8620     3.1360 hc         1 SXR       0.040533
     43 H31C         5.2440     2.3380     2.6620 hc         1 SXR       0.040533
     44 H32A         5.2450    -1.3870     2.4660 h1         1 SXR       0.069700
     45 H33A         6.8180    -1.8850     0.2050 ho         1 SXR       0.467000
     46 H36A         3.1590    -1.2320     1.9200 hn         1 SXR       0.317500
     47 H37A         1.2190    -1.0760     0.6410 h1         1 SXR       0.071200
     48 H37B         2.1870    -0.6420    -0.7820 h1         1 SXR       0.071200
     49 H38A         2.8320    -3.0190    -1.0970 hc         1 SXR       0.067700
     50 H38B         1.9080    -3.4710     0.3740 hc         1 SXR       0.067700
     51 H41A        -0.1670    -3.9870     0.1650 hn         1 SXR       0.312500
     52 H42A        -1.4670    -4.2200    -2.4240 h1         1 SXR       0.068700
     53 H42B        -2.1490    -4.6480    -0.8420 h1         1 SXR       0.068700
     54 H43A        -2.6620    -2.2230    -0.4140 h1         1 SXR       0.065700
     55 H43B        -2.0190    -1.8120    -2.0230 h1         1 SXR       0.065700
     56 H10A        -9.4820    -0.0250     3.7360 ha         1 SXR       0.112500
     57 H9A        -10.7950     2.0940     3.7550 ha         1 SXR       0.113000
     58 H8A        -10.5190     3.7460     1.9070 ha         1 SXR       0.112500
     59 H7A         -8.9360     3.2830     0.0460 ha         1 SXR       0.111000
     60 H5A         -6.9260     2.0170    -0.6980 hc         1 SXR       0.059700
     61 H5B         -6.4760     0.5060     0.0700 hc         1 SXR       0.059700
     62 H4A         -8.3770    -0.6510    -1.0370 hc         1 SXR       0.066700
     63 H4B         -8.8560     0.8900    -1.8280 hc         1 SXR       0.066700
     64 H2A         -6.9420    -2.0750    -2.0660 hc         1 SXR       0.075700
     65 H2B         -6.3170    -1.6830    -3.7070 hc         1 SXR       0.075700
     66 H1A         -4.9690    -0.9760    -1.0410 h1         1 SXR       0.070200
     67 H1B         -4.3390    -0.5810    -2.6610 h1         1 SXR       0.070200
     68 H11A        -7.8960    -0.4940     1.8790 ha         1 SXR       0.111000
@<TRIPOS>BOND
     1     1     2 1   
     2     1     3 1   
     3     1     4 1   
     4     2    34 1   
     5     3    35 1   
     6     4     5 1   
     7     5     6 1   
     8     5    36 1   
     9     5    37 1   
    10     6     7 1   
    11     6     8 1   
    12     6     9 1   
    13     7    38 1   
    14     7    39 1   
    15     7    40 1   
    16     8    41 1   
    17     8    42 1   
    18     8    43 1   
    19     9    10 1   
    20     9    11 1   
    21     9    44 1   
    22    10    45 1   
    23    11    12 2   
    24    11    13 1   
    25    13    14 1   
    26    13    46 1   
    27    14    15 1   
    28    14    47 1   
    29    14    48 1   
    30    15    16 1   
    31    15    49 1   
    32    15    50 1   
    33    16    17 2   
    34    16    18 1   
    35    18    19 1   
    36    18    51 1   
    37    19    20 1   
    38    19    52 1   
    39    19    53 1   
    40    20    21 1   
    41    20    54 1   
    42    20    55 1   
    43    21    33 1   
    44    22    23 ar  
    45    22    27 ar  
    46    22    68 1   
    47    23    24 ar  
    48    23    56 1   
    49    24    25 ar  
    50    24    57 1   
    51    25    26 ar  
    52    25    58 1   
    53    26    27 ar  
    54    26    59 1   
    55    27    28 1   
    56    28    29 1   
    57    28    60 1   
    58    28    61 1   
    59    29    30 1   
    60    29    62 1   
    61    29    63 1   
    62    30    31 2   
    63    30    32 1   
    64    32    33 1   
    65    32    64 1   
    66    32    65 1   
    67    33    66 1   
    68    33    67 1   
@<TRIPOS>SUBSTRUCTURE
     1 SXR         1 TEMP              0 ****  ****    0 ROOT
