@<TRIPOS>MOLECULE
SXR
   68    68     1     0     0
SMALL
abcg2


@<TRIPOS>ATOM
      1 P24         10.0570     2.1660    -0.3380 p3         1 SXR       0.192300
      2 O26          9.7380     2.7380    -1.8450 oh         1 SXR      -0.528100
      3 O23         10.4040     3.5680     0.4310 oh         1 SXR      -0.528100
      4 O27          8.5130     2.0850     0.2080 os         1 SXR      -0.325100
      5 C28          7.7720     0.9010    -0.0620 c3         1 SXR       0.195600
      6 C29          7.3400     0.2330     1.2470 c3         1 SXR      -0.082000
      7 C30          8.5720    -0.0910     2.0990 c3         1 SXR      -0.083600
      8 C31          6.4230     1.1640     2.0420 c3         1 SXR      -0.083600
      9 C32          6.6090    -1.1060     0.9490 c3         1 SXR       0.099300
     10 O33          7.4400    -2.0420     0.3150 oh         1 SXR      -0.651000
     11 C34          5.3460    -0.9340     0.1050 c          1 SXR       0.564100
     12 O35          5.4180    -0.9640    -1.1190 o          1 SXR      -0.611100
     13 N36          4.2000    -0.7640     0.7690 ns         1 SXR      -0.495900
     14 C37          2.9240    -0.5730     0.1120 c3         1 SXR       0.114000
     15 C38          2.3020    -1.8910    -0.3400 c3         1 SXR      -0.187400
     16 C39          0.9610    -1.6750    -1.0070 c          1 SXR       0.600100
     17 O40          0.7260    -0.6780    -1.6760 o          1 SXR      -0.594100
     18 N41          0.0690    -2.6650    -0.8360 ns         1 SXR      -0.509900
     19 C42         -1.2610    -2.6360    -1.3980 c3         1 SXR       0.115000
     20 C43         -2.2430    -1.9030    -0.4900 c3         1 SXR       0.039600
     21 S1          -3.8770    -1.8610    -1.2780 ss         1 SXR      -0.448000
     22 C11        -11.8230     0.0140     0.9560 ca         1 SXR      -0.107000
     23 C10        -13.1050     0.1940     0.4540 ca         1 SXR      -0.109000
     24 C9         -13.4090     1.3240    -0.2940 ca         1 SXR      -0.110000
     25 C8         -12.4210     2.2710    -0.5340 ca         1 SXR      -0.109000
     26 C7         -11.1410     2.0860    -0.0300 ca         1 SXR      -0.107000
     27 C6         -10.8240     0.9570     0.7220 ca         1 SXR      -0.085300
     28 C5          -9.4270     0.7400     1.2320 c3         1 SXR      -0.020100
     29 C4          -8.5630     0.0460     0.1830 c3         1 SXR      -0.180400
     30 C3          -7.1400    -0.2020     0.6120 c          1 SXR       0.571100
     31 O3          -6.7330     0.0940     1.7120 o          1 SXR      -0.521100
     32 C2          -6.2500    -0.8420    -0.4270 c3         1 SXR      -0.176400
     33 C1          -4.8350    -1.0960     0.0610 c3         1 SXR       0.080600
     34 H1          10.3590     2.3780    -2.4880 ho         1 SXR       0.461500
     35 H2          11.2440     3.5060     0.8980 ho         1 SXR       0.461500
     36 H28A         6.9080     1.1840    -0.6670 h1         1 SXR       0.046700
     37 H28B         8.3660     0.1950    -0.6560 h1         1 SXR       0.046700
     38 H30A         9.0570     0.8210     2.4440 hc         1 SXR       0.040533
     39 H30B         8.2860    -0.6580     2.9880 hc         1 SXR       0.040533
     40 H30C         9.3080    -0.6780     1.5500 hc         1 SXR       0.040533
     41 H31A         5.5360     1.4640     1.4820 hc         1 SXR       0.040533
     42 H31B         6.0900     0.6850     2.9650 hc         1 SXR       0.040533
     43 H31C         6.9550     2.0720     2.3230 hc         1 SXR       0.040533
     44 H32A         6.3320    -1.5320     1.9200 h1         1 SXR       0.069700
     45 H33A         7.3280    -1.9390    -0.6390 ho         1 SXR       0.467000
     46 H36A         4.2040    -0.8250     1.7740 hn         1 SXR       0.317500
     47 H37A         2.2680    -0.0700     0.8220 h1         1 SXR       0.071200
     48 H37B         3.0550     0.0970    -0.7360 h1         1 SXR       0.071200
     49 H38A         2.9630    -2.3780    -1.0640 hc         1 SXR       0.067700
     50 H38B         2.2120    -2.5730     0.5080 hc         1 SXR       0.067700
     51 H41A         0.3050    -3.4330    -0.2300 hn         1 SXR       0.312500
     52 H42A        -1.2250    -2.1610    -2.3780 h1         1 SXR       0.068700
     53 H42B        -1.5870    -3.6660    -1.5480 h1         1 SXR       0.068700
     54 H43A        -2.3200    -2.4160     0.4710 h1         1 SXR       0.065700
     55 H43B        -1.8990    -0.8840    -0.3070 h1         1 SXR       0.065700
     56 H10A       -13.8700    -0.5460     0.6520 ha         1 SXR       0.112500
     57 H9A        -14.4080     1.4670    -0.6850 ha         1 SXR       0.113000
     58 H8A        -12.6490     3.1580    -1.1130 ha         1 SXR       0.112500
     59 H7A        -10.3770     2.8320    -0.2210 ha         1 SXR       0.111000
     60 H5A         -8.9770     1.6980     1.5010 hc         1 SXR       0.059700
     61 H5B         -9.4540     0.1380     2.1420 hc         1 SXR       0.059700
     62 H4A         -9.0040    -0.9170    -0.1000 hc         1 SXR       0.066700
     63 H4B         -8.5410     0.6290    -0.7430 hc         1 SXR       0.066700
     64 H2A         -6.7250    -1.7730    -0.7530 hc         1 SXR       0.075700
     65 H2B         -6.2420    -0.1950    -1.3100 hc         1 SXR       0.075700
     66 H1A         -4.8360    -1.7600     0.9270 h1         1 SXR       0.070200
     67 H1B         -4.3530    -0.1610     0.3510 h1         1 SXR       0.070200
     68 H11A       -11.5950    -0.8680     1.5430 ha         1 SXR       0.111000
@<TRIPOS>BOND
     1     1     2 1   
     2     1     3 1   
     3     1     4 1   
     4     2    34 1   
     5     3    35 1   
     6     4     5 1   
     7     5     6 1   
     8     5    36 1   
     9     5    37 1   
    10     6     7 1   
    11     6     8 1   
    12     6     9 1   
    13     7    38 1   
    14     7    39 1   
    15     7    40 1   
    16     8    41 1   
    17     8    42 1   
    18     8    43 1   
    19     9    10 1   
    20     9    11 1   
    21     9    44 1   
    22    10    45 1   
    23    11    12 2   
    24    11    13 1   
    25    13    14 1   
    26    13    46 1   
    27    14    15 1   
    28    14    47 1   
    29    14    48 1   
    30    15    16 1   
    31    15    49 1   
    32    15    50 1   
    33    16    17 2   
    34    16    18 1   
    35    18    19 1   
    36    18    51 1   
    37    19    20 1   
    38    19    52 1   
    39    19    53 1   
    40    20    21 1   
    41    20    54 1   
    42    20    55 1   
    43    21    33 1   
    44    22    23 ar  
    45    22    27 ar  
    46    22    68 1   
    47    23    24 ar  
    48    23    56 1   
    49    24    25 ar  
    50    24    57 1   
    51    25    26 ar  
    52    25    58 1   
    53    26    27 ar  
    54    26    59 1   
    55    27    28 1   
    56    28    29 1   
    57    28    60 1   
    58    28    61 1   
    59    29    30 1   
    60    29    62 1   
    61    29    63 1   
    62    30    31 2   
    63    30    32 1   
    64    32    33 1   
    65    32    64 1   
    66    32    65 1   
    67    33    66 1   
    68    33    67 1   
@<TRIPOS>SUBSTRUCTURE
     1 SXR         1 TEMP              0 ****  ****    0 ROOT
