@<TRIPOS>MOLECULE
SXS
   19    20     1     0     0
SMALL
abcg2


@<TRIPOS>ATOM
      1 O1           1.4900    -2.7660    -0.0190 o          1 SXS      -0.491000
      2 C2           1.1570    -1.6040    -0.0140 c          1 SXS       0.610600
      3 N3           2.0470    -0.5450    -0.0150 ns         1 SXS      -0.594300
      4 C4          -0.2070    -1.0680    -0.0070 ca         1 SXS      -0.183600
      5 C5          -1.4050    -1.7720    -0.0100 ca         1 SXS       0.016000
      6 C6          -2.5970    -1.0820    -0.0050 ca         1 SXS      -0.187000
      7 C7          -2.6360     0.3320     0.0060 ca         1 SXS       0.371000
      8 N8          -3.8080     0.9860     0.0140 nv         1 SXS      -1.123000
      9 C11         -1.4180     1.0460     0.0090 ca         1 SXS      -0.103000
     10 C12         -0.2600     0.3160     0.0020 ca         1 SXS      -0.185500
     11 S13          1.3710     0.9860     0.0000 sy         1 SXS       1.178300
     12 O14          1.6730     1.6650     1.2450 o          1 SXS      -0.519500
     13 O15          1.6610     1.6830    -1.2370 o          1 SXS      -0.519500
     14 HN3          3.0540    -0.6680    -0.0090 hn         1 SXS       0.356500
     15 H5          -1.4080    -2.8540    -0.0180 ha         1 SXS       0.136000
     16 H6          -3.5300    -1.6300    -0.0090 ha         1 SXS       0.120000
     17 HN8         -4.6820     0.4900     0.0030 hn         1 SXS       0.494500
     18 HN8A        -3.8480     1.9890     0.0170 hn         1 SXS       0.494500
     19 H11         -1.4140     2.1290     0.0170 ha         1 SXS       0.130000
@<TRIPOS>BOND
     1     1     2 2   
     2     2     3 1   
     3     2     4 1   
     4     3    11 1   
     5     3    14 1   
     6     4     5 ar  
     7     4    10 ar  
     8     5     6 ar  
     9     5    15 1   
    10     6     7 ar  
    11     6    16 1   
    12     7     8 1   
    13     7     9 ar  
    14     8    17 1   
    15     8    18 1   
    16     9    10 ar  
    17     9    19 1   
    18    10    11 1   
    19    11    12 2   
    20    11    13 2   
@<TRIPOS>SUBSTRUCTURE
     1 SXS         1 TEMP              0 ****  ****    0 ROOT
