@<TRIPOS>MOLECULE
SXS
   19    20     1     0     0
SMALL
No Charge or Current Charge


@<TRIPOS>ATOM
      1 O1           1.5100    -2.7640    -0.0530 o          1 SXS      -0.491000
      2 C2           1.1960    -1.5860    -0.0340 c          1 SXS       0.610600
      3 N3           2.0820    -0.5520    -0.0330 ns         1 SXS      -0.594300
      4 C4          -0.2130    -1.0370    -0.0050 ca         1 SXS      -0.183600
      5 C5          -1.4080    -1.7740     0.0020 ca         1 SXS       0.016000
      6 C6          -2.6330    -1.0720     0.0310 ca         1 SXS      -0.187000
      7 C7          -2.6620     0.3390     0.0530 ca         1 SXS       0.371000
      8 N8          -3.8680     0.9870     0.0800 nv         1 SXS      -1.123000
      9 C11         -1.4600     1.0740     0.0470 ca         1 SXS      -0.103000
     10 C12         -0.2490     0.3620     0.0180 ca         1 SXS      -0.185500
     11 S13          1.4210     0.9750     0.0040 sy         1 SXS       1.178300
     12 O14          1.7660     1.5820     1.2940 o          1 SXS      -0.519500
     13 O15          1.7270     1.6260    -1.2750 o          1 SXS      -0.519500
     14 HN3          3.0820    -0.6430    -0.0380 hn         1 SXS       0.356500
     15 H5          -1.3920    -2.8620    -0.0140 ha         1 SXS       0.136000
     16 H6          -3.5640    -1.6320     0.0380 ha         1 SXS       0.120000
     17 HN8         -4.7190     0.4600    -0.1100 hn         1 SXS       0.494500
     18 HN8A        -3.9040     1.9890    -0.1020 hn         1 SXS       0.494500
     19 H11         -1.4700     2.1600     0.0660 ha         1 SXS       0.130000
@<TRIPOS>BOND
     1     1     2 2   
     2     2     3 1   
     3     2     4 1   
     4     3    11 1   
     5     3    14 1   
     6     4     5 ar  
     7     4    10 ar  
     8     5     6 ar  
     9     5    15 1   
    10     6     7 ar  
    11     6    16 1   
    12     7     8 1   
    13     7     9 ar  
    14     8    17 1   
    15     8    18 1   
    16     9    10 ar  
    17     9    19 1   
    18    10    11 1   
    19    11    12 2   
    20    11    13 2   
@<TRIPOS>SUBSTRUCTURE
     1 SXS         1 TEMP              0 ****  ****    0 ROOT
