@<TRIPOS>MOLECULE
SXU
   79    82     1     0     0
SMALL
No Charge or Current Charge


@<TRIPOS>ATOM
      1 C10        145.1070   116.8720   158.2790 ca         1 SXU      -0.092300
      2 C13        145.4860   114.4340   159.6460 ca         1 SXU      -0.109000
      3 C15        143.9980   116.0880   158.6570 ca         1 SXU      -0.097500
      4 C17        143.2600   120.2520   159.8220 c3         1 SXU      -0.116900
      5 C22        140.6930   119.7760   161.9060 ca         1 SXU      -0.308000
      6 C24        141.8620   120.7490   163.8110 ca         1 SXU      -0.135250
      7 C28        141.1160   118.4930   162.3100 ca         1 SXU      -0.006750
      8 C04        141.5650   122.7720   157.2610 c3         1 SXU       0.236000
      9 C05        143.9400   122.4690   156.4410 c3         1 SXU       0.210300
     10 C06        144.3390   120.9810   156.5470 c3         1 SXU      -0.116900
     11 C07        145.4180   120.6730   157.6190 c3         1 SXU       0.195300
     12 C09        144.9040   118.1950   157.5460 c3         1 SXU       0.242100
     13 C11        146.4060   116.4260   158.5910 ca         1 SXU      -0.097500
     14 C12        146.5960   115.2110   159.2720 ca         1 SXU      -0.114000
     15 C14        144.1870   114.8730   159.3380 ca         1 SXU      -0.114000
     16 C16        144.6030   119.4960   159.7120 c3         1 SXU       0.195300
     17 C18        142.0360   119.5830   159.1630 c3         1 SXU       0.210300
     18 C23        141.0640   120.9050   162.6640 ca         1 SXU      -0.006750
     19 C25        142.2950   119.4720   164.2110 ca         1 SXU      -0.020800
     20 C27        141.9150   118.3460   163.4570 ca         1 SXU      -0.135250
     21 C30        140.1800   120.6980   157.9230 c3         1 SXU       0.236000
     22 C31        141.0510   121.3820   156.8650 c2         1 SXU      -0.106400
     23 C32        141.1820   120.8690   155.6250 c2         1 SXU      -0.307000
     24 C33        143.3910   125.5270   156.6670 ca         1 SXU      -0.308000
     25 C34        142.1720   126.1040   156.2580 ca         1 SXU      -0.006750
     26 C35        142.1290   126.9190   155.1130 ca         1 SXU      -0.135250
     27 C36        143.2980   127.1720   154.3730 ca         1 SXU      -0.020800
     28 C37        143.2470   128.0510   153.1330 c3         1 SXU      -0.057300
     29 C38        144.5150   126.6000   154.7880 ca         1 SXU      -0.135250
     30 C39        144.5660   125.7840   155.9310 ca         1 SXU      -0.006750
     31 N03        143.0310   122.9360   157.5200 n3         1 SXU      -0.728500
     32 N08        145.2420   119.3910   158.3650 n3         1 SXU      -0.775600
     33 N19        140.8230   120.4340   159.2310 n3         1 SXU      -0.728500
     34 S20        139.6890   119.9820   160.4230 sy         1 SXU       1.175100
     35 H131       145.6320   113.4940   160.1740 ha         1 SXU       0.112000
     36 H151       142.9880   116.4210   158.4240 ha         1 SXU       0.114000
     37 H171       143.3790   121.2620   159.4300 hc         1 SXU       0.055450
     38 H172       143.0590   120.3820   160.8880 hc         1 SXU       0.055450
     39 H241       142.1470   121.6270   164.3870 ha         1 SXU       0.118750
     40 H261       142.5380   119.1550   166.3420 hc         1 SXU       0.049533
     41 H262       143.8310   118.4460   165.3590 hc         1 SXU       0.049533
     42 H263       143.7830   120.1930   165.6240 hc         1 SXU       0.049533
     43 H281       140.8350   117.6090   161.7390 ha         1 SXU       0.140750
     44 H041       141.2620   123.4670   156.4660 h1         1 SXU       0.062200
     45 H042       141.0000   123.0750   158.1530 h1         1 SXU       0.062200
     46 H052       144.8800   123.0360   156.4370 h1         1 SXU       0.046450
     47 H051       143.4790   122.6550   155.4630 h1         1 SXU       0.046450
     48 H062       143.4520   120.3840   156.7310 hc         1 SXU       0.055450
     49 H061       144.7230   120.6530   155.5740 hc         1 SXU       0.055450
     50 H072       146.3930   120.6670   157.1120 h1         1 SXU       0.056200
     51 H071       145.4600   121.5080   158.3320 h1         1 SXU       0.056200
     52 H091       145.5360   118.1800   156.6470 h1         1 SXU       0.032200
     53 H092       143.8660   118.2450   157.1960 h1         1 SXU       0.032200
     54 H111       147.2680   117.0270   158.3090 ha         1 SXU       0.114000
     55 H121       147.6020   114.8730   159.5110 ha         1 SXU       0.112500
     56 H141       143.3270   114.2730   159.6280 ha         1 SXU       0.112500
     57 H161       144.4770   118.5040   160.1650 h1         1 SXU       0.056200
     58 H162       145.3050   120.0270   160.3710 h1         1 SXU       0.056200
     59 H182       141.8670   118.6040   159.6310 h1         1 SXU       0.046450
     60 H181       142.2760   119.3630   158.1200 h1         1 SXU       0.046450
     61 H231       140.7480   121.9020   162.3620 ha         1 SXU       0.140750
     62 H271       142.2390   117.3530   163.7590 ha         1 SXU       0.118750
     63 H301       139.2970   121.3360   158.0660 h1         1 SXU       0.062200
     64 H302       139.8010   119.7520   157.5100 h1         1 SXU       0.062200
     65 H322       140.7430   119.9090   155.3520 ha         1 SXU       0.168500
     66 H321       141.7220   121.3920   154.8380 ha         1 SXU       0.168500
     67 H341       141.2560   125.9250   156.8200 ha         1 SXU       0.140750
     68 H351       141.1820   127.3550   154.8030 ha         1 SXU       0.118750
     69 H372       143.0450   127.4510   152.2380 hc         1 SXU       0.049533
     70 H371       142.4590   128.8090   153.2130 hc         1 SXU       0.049533
     71 H373       144.1950   128.5780   152.9770 hc         1 SXU       0.049533
     72 H381       145.4250   126.7880   154.2240 ha         1 SXU       0.118750
     73 H391       145.5190   125.3560   156.2380 ha         1 SXU       0.140750
     74 S02        143.4460   124.4760   158.1330 sy         1 SXU       1.175100
     75 C26        143.1590   119.3080   165.4510 c3         1 SXU      -0.057300
     76 O01        142.3670   124.8730   159.0450 o          1 SXU      -0.552000
     77 O21        138.8380   121.1590   160.6350 o          1 SXU      -0.552000
     78 O29        139.1360   118.6860   160.0150 o          1 SXU      -0.552000
     79 O40        144.8250   124.3630   158.6230 o          1 SXU      -0.552000
@<TRIPOS>BOND
     1     1     3 ar  
     2     1    12 1   
     3     1    13 ar  
     4     2    14 ar  
     5     2    15 ar  
     6     2    35 1   
     7     3    15 ar  
     8     3    36 1   
     9     4    16 1   
    10     4    17 1   
    11     4    37 1   
    12     4    38 1   
    13     5     7 ar  
    14     5    18 ar  
    15     5    34 1   
    16     6    18 ar  
    17     6    19 ar  
    18     6    39 1   
    19     7    20 ar  
    20     7    43 1   
    21     8    22 1   
    22     8    31 1   
    23     8    44 1   
    24     8    45 1   
    25     9    10 1   
    26     9    31 1   
    27     9    46 1   
    28     9    47 1   
    29    10    11 1   
    30    10    48 1   
    31    10    49 1   
    32    11    32 1   
    33    11    50 1   
    34    11    51 1   
    35    12    32 1   
    36    12    52 1   
    37    12    53 1   
    38    13    14 ar  
    39    13    54 1   
    40    14    55 1   
    41    15    56 1   
    42    16    32 1   
    43    16    57 1   
    44    16    58 1   
    45    17    33 1   
    46    17    59 1   
    47    17    60 1   
    48    18    61 1   
    49    19    20 ar  
    50    19    75 1   
    51    20    62 1   
    52    21    22 1   
    53    21    33 1   
    54    21    63 1   
    55    21    64 1   
    56    22    23 2   
    57    23    65 1   
    58    23    66 1   
    59    24    25 ar  
    60    24    30 ar  
    61    24    74 1   
    62    25    26 ar  
    63    25    67 1   
    64    26    27 ar  
    65    26    68 1   
    66    27    28 1   
    67    27    29 ar  
    68    28    69 1   
    69    28    70 1   
    70    28    71 1   
    71    29    30 ar  
    72    29    72 1   
    73    30    73 1   
    74    31    74 1   
    75    33    34 1   
    76    34    77 2   
    77    34    78 2   
    78    40    75 1   
    79    41    75 1   
    80    42    75 1   
    81    74    76 2   
    82    74    79 2   
@<TRIPOS>SUBSTRUCTURE
     1 SXU         1 TEMP              0 ****  ****    0 ROOT
