@<TRIPOS>MOLECULE
SXU
   79    82     1     0     0
SMALL
abcg2


@<TRIPOS>ATOM
      1 C10        145.2060   116.5130   158.1570 ca         1 SXU      -0.092300
      2 C13        145.6630   114.1120   159.5260 ca         1 SXU      -0.109000
      3 C15        144.1510   115.6530   158.4540 ca         1 SXU      -0.097500
      4 C17        143.3030   119.9210   159.5970 c3         1 SXU      -0.116900
      5 C22        140.7590   120.4620   161.5120 ca         1 SXU      -0.308000
      6 C24        141.9800   121.9480   162.9350 ca         1 SXU      -0.135250
      7 C28        141.0370   119.3950   162.3580 ca         1 SXU      -0.006750
      8 C04        141.6360   122.3890   156.7610 c3         1 SXU       0.236000
      9 C05        144.0650   122.0050   156.2800 c3         1 SXU       0.210300
     10 C06        144.4550   120.5340   156.4080 c3         1 SXU      -0.116900
     11 C07        145.4920   120.2200   157.5120 c3         1 SXU       0.195300
     12 C09        144.9600   117.8160   157.4340 c3         1 SXU       0.242100
     13 C11        146.4960   116.1550   158.5520 ca         1 SXU      -0.097500
     14 C12        146.7260   114.9650   159.2300 ca         1 SXU      -0.114000
     15 C14        144.3750   114.4590   159.1360 ca         1 SXU      -0.114000
     16 C16        144.6010   119.1080   159.5360 c3         1 SXU       0.195300
     17 C18        142.0800   119.2840   158.9470 c3         1 SXU       0.210300
     18 C23        141.2240   121.7430   161.7930 ca         1 SXU      -0.006750
     19 C25        142.2790   120.8930   163.8040 ca         1 SXU      -0.020800
     20 C27        141.7980   119.6180   163.4970 ca         1 SXU      -0.135250
     21 C30        140.3060   120.2930   157.4980 c3         1 SXU       0.236000
     22 C31        141.1210   121.0020   156.4490 c2         1 SXU      -0.106400
     23 C32        141.2440   120.4740   155.2350 c2         1 SXU      -0.307000
     24 C33        143.2540   125.1430   157.3000 ca         1 SXU      -0.308000
     25 C34        142.0240   125.7930   157.2170 ca         1 SXU      -0.006750
     26 C35        141.8960   126.9030   156.3960 ca         1 SXU      -0.135250
     27 C36        142.9760   127.3760   155.6460 ca         1 SXU      -0.020800
     28 C37        142.8160   128.5570   154.7310 c3         1 SXU      -0.057300
     29 C38        144.2010   126.7110   155.7510 ca         1 SXU      -0.135250
     30 C39        144.3470   125.5990   156.5680 ca         1 SXU      -0.006750
     31 N03        143.0310   122.4100   157.2630 n3         1 SXU      -0.728500
     32 N08        145.2870   118.9770   158.2530 n3         1 SXU      -0.775600
     33 N19        140.9440   120.2400   158.8320 n3         1 SXU      -0.728500
     34 S20        139.8170   120.1940   160.0510 sy         1 SXU       1.175100
     35 H131       145.8410   113.1850   160.0570 ha         1 SXU       0.112000
     36 H151       143.1450   115.9260   158.1580 ha         1 SXU       0.114000
     37 H171       143.4600   120.8940   159.1420 hc         1 SXU       0.055450
     38 H172       143.0980   120.1040   160.6510 hc         1 SXU       0.055450
     39 H241       142.3510   122.9410   163.1560 ha         1 SXU       0.118750
     40 H261       142.4160   121.4110   165.8770 hc         1 SXU       0.049533
     41 H262       143.6170   120.2330   165.3540 hc         1 SXU       0.049533
     42 H263       143.7920   121.9440   164.9150 hc         1 SXU       0.049533
     43 H281       140.6730   118.4050   162.1200 ha         1 SXU       0.140750
     44 H041       141.5780   123.0020   155.8570 h1         1 SXU       0.062200
     45 H042       141.0060   122.8380   157.5240 h1         1 SXU       0.062200
     46 H052       144.9430   122.6350   156.4090 h1         1 SXU       0.046450
     47 H051       143.6700   122.2080   155.2830 h1         1 SXU       0.046450
     48 H062       143.5530   119.9530   156.5690 hc         1 SXU       0.055450
     49 H061       144.8480   120.2120   155.4400 hc         1 SXU       0.055450
     50 H072       146.4850   120.1920   157.0490 h1         1 SXU       0.056200
     51 H071       145.5120   121.0320   158.2380 h1         1 SXU       0.056200
     52 H091       145.6030   117.8610   156.5500 h1         1 SXU       0.032200
     53 H092       143.9250   117.8110   157.0620 h1         1 SXU       0.032200
     54 H111       147.3210   116.8210   158.3300 ha         1 SXU       0.114000
     55 H121       147.7330   114.6980   159.5270 ha         1 SXU       0.112500
     56 H141       143.5430   113.8040   159.3650 ha         1 SXU       0.112500
     57 H161       144.4300   118.1040   159.9280 h1         1 SXU       0.056200
     58 H162       145.2960   119.5920   160.2310 h1         1 SXU       0.056200
     59 H182       141.7720   118.3800   159.4790 h1         1 SXU       0.046450
     60 H181       142.3040   118.9730   157.9300 h1         1 SXU       0.046450
     61 H231       141.0190   122.5600   161.1160 ha         1 SXU       0.140750
     62 H271       142.0240   118.7890   164.1560 ha         1 SXU       0.118750
     63 H301       139.3710   120.8430   157.6120 h1         1 SXU       0.062200
     64 H302       140.0600   119.2840   157.1520 h1         1 SXU       0.062200
     65 H322       140.8640   119.4840   155.0120 ha         1 SXU       0.168500
     66 H321       141.7290   121.0100   154.4290 ha         1 SXU       0.168500
     67 H341       141.1830   125.4400   157.7970 ha         1 SXU       0.140750
     68 H351       140.9420   127.4130   156.3390 ha         1 SXU       0.118750
     69 H372       142.4810   128.2280   153.7430 hc         1 SXU       0.049533
     70 H371       142.0720   129.2550   155.1130 hc         1 SXU       0.049533
     71 H373       143.7610   129.0850   154.5980 hc         1 SXU       0.049533
     72 H381       145.0530   127.0730   155.1890 ha         1 SXU       0.118750
     73 H391       145.3040   125.1020   156.6470 ha         1 SXU       0.140750
     74 S02        143.3930   123.6680   158.2650 sy         1 SXU       1.175100
     75 C26        143.0780   121.1320   165.0520 c3         1 SXU      -0.057300
     76 O01        142.3710   123.7100   159.2850 o          1 SXU      -0.552000
     77 O21        138.9380   121.3270   159.8440 o          1 SXU      -0.552000
     78 O29        139.1940   118.8860   160.1510 o          1 SXU      -0.552000
     79 O40        144.7730   123.5060   158.6620 o          1 SXU      -0.552000
@<TRIPOS>BOND
     1     1     3 ar  
     2     1    12 1   
     3     1    13 ar  
     4     2    14 ar  
     5     2    15 ar  
     6     2    35 1   
     7     3    15 ar  
     8     3    36 1   
     9     4    16 1   
    10     4    17 1   
    11     4    37 1   
    12     4    38 1   
    13     5     7 ar  
    14     5    18 ar  
    15     5    34 1   
    16     6    18 ar  
    17     6    19 ar  
    18     6    39 1   
    19     7    20 ar  
    20     7    43 1   
    21     8    22 1   
    22     8    31 1   
    23     8    44 1   
    24     8    45 1   
    25     9    10 1   
    26     9    31 1   
    27     9    46 1   
    28     9    47 1   
    29    10    11 1   
    30    10    48 1   
    31    10    49 1   
    32    11    32 1   
    33    11    50 1   
    34    11    51 1   
    35    12    32 1   
    36    12    52 1   
    37    12    53 1   
    38    13    14 ar  
    39    13    54 1   
    40    14    55 1   
    41    15    56 1   
    42    16    32 1   
    43    16    57 1   
    44    16    58 1   
    45    17    33 1   
    46    17    59 1   
    47    17    60 1   
    48    18    61 1   
    49    19    20 ar  
    50    19    75 1   
    51    20    62 1   
    52    21    22 1   
    53    21    33 1   
    54    21    63 1   
    55    21    64 1   
    56    22    23 2   
    57    23    65 1   
    58    23    66 1   
    59    24    25 ar  
    60    24    30 ar  
    61    24    74 1   
    62    25    26 ar  
    63    25    67 1   
    64    26    27 ar  
    65    26    68 1   
    66    27    28 1   
    67    27    29 ar  
    68    28    69 1   
    69    28    70 1   
    70    28    71 1   
    71    29    30 ar  
    72    29    72 1   
    73    30    73 1   
    74    31    74 1   
    75    33    34 1   
    76    34    77 2   
    77    34    78 2   
    78    40    75 1   
    79    41    75 1   
    80    42    75 1   
    81    74    76 2   
    82    74    79 2   
@<TRIPOS>SUBSTRUCTURE
     1 SXU         1 TEMP              0 ****  ****    0 ROOT
