@<TRIPOS>MOLECULE
SXX
   27    27     1     0     0
SMALL
bcc


@<TRIPOS>ATOM
      1 C1          -0.2880    -0.0880     2.2930 ca         1 SXX       0.045100
      2 C2           1.0480    -0.0710     1.8950 ca         1 SXX       0.099100
      3 C3           1.3640    -0.0420     0.5400 ca         1 SXX      -0.217000
      4 C4           0.3610    -0.0310    -0.4300 ca         1 SXX       0.034200
      5 C5          -0.9760    -0.0470    -0.0280 ca         1 SXX      -0.217000
      6 C6          -1.2940    -0.0760     1.3200 ca         1 SXX       0.099100
      7 O7          -0.5670    -0.1160     3.6130 oh         1 SXX      -0.493100
      8 O8          -2.5470    -0.0930     1.8250 os         1 SXX      -0.332400
      9 O9           1.9500    -0.0840     2.8960 os         1 SXX      -0.332400
     10 C10          0.7600    -0.0030    -1.8370 ce         1 SXX      -0.189200
     11 C11         -0.0420     0.0050    -2.9050 cf         1 SXX      -0.161200
     12 C12          0.4680     0.0310    -4.3260 c          1 SXX       0.905800
     13 O13         -0.4130     0.0350    -5.2120 o          1 SXX      -0.828300
     14 O14          1.7030     0.0460    -4.5050 o          1 SXX      -0.828300
     15 C15          3.3210    -0.0700     2.5580 c3         1 SXX       0.132700
     16 C14         -3.6410    -0.0940     0.9300 c3         1 SXX       0.132700
     17 H3           2.3970    -0.0280     0.2180 ha         1 SXX       0.141500
     18 H5          -1.7600    -0.0380    -0.7730 ha         1 SXX       0.141500
     19 H7          -1.5240    -0.1290     3.7400 ho         1 SXX       0.423000
     20 H10          1.8330     0.0120    -2.0110 ha         1 SXX       0.140000
     21 H11         -1.1210    -0.0090    -2.7840 ha         1 SXX       0.091000
     22 H151         3.8710    -0.0860     3.4960 h1         1 SXX       0.035700
     23 H152         3.6080    -0.9460     1.9690 h1         1 SXX       0.035700
     24 H153         3.5990     0.8320     2.0050 h1         1 SXX       0.035700
     25 H141        -4.5400    -0.1100     1.5400 h1         1 SXX       0.035700
     26 H142        -3.6560     0.8040     0.3070 h1         1 SXX       0.035700
     27 H143        -3.6370    -0.9760     0.2850 h1         1 SXX       0.035700
@<TRIPOS>BOND
     1     1     2 ar  
     2     1     6 ar  
     3     1     7 1   
     4     2     3 ar  
     5     2     9 1   
     6     3     4 ar  
     7     3    17 1   
     8     4     5 ar  
     9     4    10 1   
    10     5     6 ar  
    11     5    18 1   
    12     6     8 1   
    13     7    19 1   
    14     8    16 1   
    15     9    15 1   
    16    10    11 2   
    17    10    20 1   
    18    11    12 1   
    19    11    21 1   
    20    12    13 1   
    21    12    14 1   
    22    15    22 1   
    23    15    23 1   
    24    15    24 1   
    25    16    25 1   
    26    16    26 1   
    27    16    27 1   
@<TRIPOS>SUBSTRUCTURE
     1 SXX         1 TEMP              0 ****  ****    0 ROOT
