@<TRIPOS>MOLECULE
SXX
   27    27     1     0     0
SMALL
No Charge or Current Charge


@<TRIPOS>ATOM
      1 C1          -0.2870    -0.0910     2.3420 ca         1 SXX       0.045100
      2 C2           1.0700    -0.0730     1.9440 ca         1 SXX       0.099100
      3 C3           1.3880    -0.0450     0.5680 ca         1 SXX      -0.199000
      4 C4           0.3720    -0.0350    -0.4070 ca         1 SXX       0.034200
      5 C5          -0.9760    -0.0530     0.0000 ca         1 SXX      -0.199000
      6 C6          -1.3090    -0.0810     1.3710 ca         1 SXX       0.099100
      7 O7          -0.6340    -0.1180     3.6710 oh         1 SXX      -0.532100
      8 O8          -2.6220    -0.0990     1.8140 os         1 SXX      -0.355600
      9 O9           2.0540    -0.0840     2.9210 os         1 SXX      -0.355600
     10 C10          0.7520    -0.0060    -1.8490 ce         1 SXX      -0.239200
     11 C11         -0.0470     0.0040    -2.9630 cf         1 SXX      -0.211200
     12 C12          0.4370     0.0340    -4.3770 c          1 SXX       0.695200
     13 O13         -0.4050     0.0400    -5.2600 o          1 SXX      -0.723000
     14 O14          1.6400     0.0520    -4.5920 o          1 SXX      -0.723000
     15 C15          3.4580    -0.0670     2.6060 c3         1 SXX       0.155900
     16 C14         -3.7410    -0.0910     0.9090 c3         1 SXX       0.155900
     17 H3           2.4220    -0.0310     0.2380 ha         1 SXX       0.123500
     18 H5          -1.7570    -0.0450    -0.7510 ha         1 SXX       0.123500
     19 H7          -1.6170    -0.1260     3.7060 ho         1 SXX       0.462000
     20 H10          1.8310     0.0090    -2.0140 ha         1 SXX       0.190000
     21 H11         -1.1270    -0.0110    -2.8510 ha         1 SXX       0.141000
     22 H151         4.0540    -0.0790     3.5270 h1         1 SXX       0.035700
     23 H152         3.7350    -0.9460     2.0110 h1         1 SXX       0.035700
     24 H153         3.7210     0.8380     2.0430 h1         1 SXX       0.035700
     25 H141        -4.6840    -0.1080     1.4700 h1         1 SXX       0.035700
     26 H142        -3.7330     0.8130     0.2870 h1         1 SXX       0.035700
     27 H143        -3.7190    -0.9710     0.2540 h1         1 SXX       0.035700
@<TRIPOS>BOND
     1     1     2 ar  
     2     1     6 ar  
     3     1     7 1   
     4     2     3 ar  
     5     2     9 1   
     6     3     4 ar  
     7     3    17 1   
     8     4     5 ar  
     9     4    10 1   
    10     5     6 ar  
    11     5    18 1   
    12     6     8 1   
    13     7    19 1   
    14     8    16 1   
    15     9    15 1   
    16    10    11 2   
    17    10    20 1   
    18    11    12 1   
    19    11    21 1   
    20    12    13 1   
    21    12    14 1   
    22    15    22 1   
    23    15    23 1   
    24    15    24 1   
    25    16    25 1   
    26    16    26 1   
    27    16    27 1   
@<TRIPOS>SUBSTRUCTURE
     1 SXX         1 TEMP              0 ****  ****    0 ROOT
