@<TRIPOS>MOLECULE
SXZ
   59    61     1     0     0
SMALL
No Charge or Current Charge


@<TRIPOS>ATOM
      1 O           -5.5640     3.2850    -1.0770 o          1 SXZ      -0.719500
      2 C           -5.6130     3.0050     0.1140 c          1 SXZ       0.716000
      3 OXT         -6.4570     3.4560     0.8750 o          1 SXZ      -0.719500
      4 CA          -4.6270     1.9300     0.6640 c3         1 SXZ      -0.047300
      5 N           -4.6000     0.7480    -0.2360 ns         1 SXZ      -0.461900
      6 CB          -3.2160     2.5310     0.8870 c3         1 SXZ      -0.062400
      7 CG          -2.2220     1.5720     1.5710 c3         1 SXZ       0.080600
      8 SD          -0.6010     2.4180     1.8620 ss         1 SXZ      -0.444000
      9 C5           0.2880     1.1230     2.8590 c3         1 SXZ       0.048600
     10 C4           0.5790    -0.1870     2.0840 c5         1 SXZ       0.167300
     11 O4           1.4160     0.0790     0.9410 os         1 SXZ      -0.422000
     12 C1           2.0540    -1.1590     0.5410 c5         1 SXZ       0.318300
     13 C2           1.7820    -2.1990     1.6980 c5         1 SXZ       0.099300
     14 O2           0.6720    -3.0690     1.4350 oh         1 SXZ      -0.701000
     15 C3           1.3990    -1.2520     2.8710 c5         1 SXZ       0.086300
     16 O3           0.6370    -1.9570     3.8690 oh         1 SXZ      -0.698000
     17 N9           3.4520    -0.8620     0.2220 na         1 SXZ      -0.303300
     18 C8           4.5310    -0.9090     1.1120 cc         1 SXZ       0.425700
     19 N7           5.6910    -0.6090     0.4950 nd         1 SXZ      -0.568100
     20 C11          5.2990    -0.3700    -0.8260 ca         1 SXZ      -0.096600
     21 C6           6.0810    -0.0090    -1.9440 ca         1 SXZ       0.447900
     22 N6           7.4270     0.1670    -1.8730 nv         1 SXZ      -1.071900
     23 N1           5.5210     0.1900    -3.1480 nb         1 SXZ      -0.310000
     24 C14          4.1780     0.0180    -3.2160 ca         1 SXZ       0.173900
     25 N3           3.3530    -0.3300    -2.1980 nb         1 SXZ      -0.214000
     26 C12          3.9470    -0.5170    -1.0030 ca         1 SXZ       0.115500
     27 C13         -4.4800    -0.5650     0.1650 c          1 SXZ       0.587100
     28 O1          -4.3630    -0.8870     1.3390 o          1 SXZ      -0.662100
     29 C15         -4.4630    -1.5900    -0.9770 c3         1 SXZ      -0.157400
     30 C7          -5.7670    -2.4320    -1.0440 c3         1 SXZ      -0.052700
     31 C9          -7.0160    -1.5610    -1.3160 c3         1 SXZ      -0.089100
     32 C10         -5.6450    -3.5670    -2.0850 c3         1 SXZ      -0.089100
     33 H2          -5.0230     1.6120     1.6370 h1         1 SXZ       0.062700
     34 H3          -4.7090     0.9100    -1.2310 hn         1 SXZ       0.333500
     35 H4          -2.8000     2.8530    -0.0750 hc         1 SXZ       0.059200
     36 H5          -3.3130     3.4310     1.5070 hc         1 SXZ       0.059200
     37 H6          -2.6330     1.2380     2.5330 h1         1 SXZ       0.060700
     38 H7          -2.0570     0.6930     0.9350 h1         1 SXZ       0.060700
     39 H8           1.2390     1.5460     3.2060 h1         1 SXZ       0.070700
     40 H9          -0.3160     0.8870     3.7450 h1         1 SXZ       0.070700
     41 H10         -0.3710    -0.6120     1.7340 h1         1 SXZ       0.093700
     42 H11          1.6040    -1.5290    -0.3890 h2         1 SXZ       0.122700
     43 H12          2.6770    -2.7900     1.9340 h1         1 SXZ       0.069700
     44 H13          0.2220    -3.1200     2.3180 ho         1 SXZ       0.524000
     45 H14          2.2980    -0.8000     3.3130 h1         1 SXZ       0.051700
     46 H15          0.7810    -1.5040     4.7350 ho         1 SXZ       0.510000
     47 H16          4.4150    -1.1560     2.1610 h5         1 SXZ       0.082800
     48 H17          7.8270     0.2400    -0.9410 hn         1 SXZ       0.504000
     49 H18          7.8800     0.7060    -2.6060 hn         1 SXZ       0.504000
     50 H19          3.7140     0.1740    -4.1880 h5         1 SXZ       0.042100
     51 H20         -4.3270    -1.0810    -1.9390 hc         1 SXZ       0.048200
     52 H21         -3.6220    -2.2730    -0.8060 hc         1 SXZ       0.048200
     53 H22         -5.9070    -2.9080    -0.0650 hc         1 SXZ       0.058700
     54 H23         -7.9190    -2.1820    -1.3550 hc         1 SXZ       0.031200
     55 H24         -7.1600    -0.8160    -0.5240 hc         1 SXZ       0.031200
     56 H25         -6.9240    -1.0320    -2.2730 hc         1 SXZ       0.031200
     57 H26         -4.7910    -4.2170    -1.8530 hc         1 SXZ       0.031200
     58 H27         -6.5490    -4.1880    -2.0890 hc         1 SXZ       0.031200
     59 H28         -5.5030    -3.1600    -3.0930 hc         1 SXZ       0.031200
@<TRIPOS>BOND
     1     1     2 1   
     2     2     3 1   
     3     2     4 1   
     4     4     5 1   
     5     4     6 1   
     6     4    33 1   
     7     5    27 1   
     8     5    34 1   
     9     6     7 1   
    10     6    35 1   
    11     6    36 1   
    12     7     8 1   
    13     7    37 1   
    14     7    38 1   
    15     8     9 1   
    16     9    10 1   
    17     9    39 1   
    18     9    40 1   
    19    10    11 1   
    20    10    15 1   
    21    10    41 1   
    22    11    12 1   
    23    12    13 1   
    24    12    17 1   
    25    12    42 1   
    26    13    14 1   
    27    13    15 1   
    28    13    43 1   
    29    14    44 1   
    30    15    16 1   
    31    15    45 1   
    32    16    46 1   
    33    17    18 1   
    34    17    26 1   
    35    18    19 2   
    36    18    47 1   
    37    19    20 1   
    38    20    21 ar  
    39    20    26 ar  
    40    21    22 1   
    41    21    23 ar  
    42    22    48 1   
    43    22    49 1   
    44    23    24 ar  
    45    24    25 ar  
    46    24    50 1   
    47    25    26 ar  
    48    27    28 2   
    49    27    29 1   
    50    29    30 1   
    51    29    51 1   
    52    29    52 1   
    53    30    31 1   
    54    30    32 1   
    55    30    53 1   
    56    31    54 1   
    57    31    55 1   
    58    31    56 1   
    59    32    57 1   
    60    32    58 1   
    61    32    59 1   
@<TRIPOS>SUBSTRUCTURE
     1 SXZ         1 TEMP              0 ****  ****    0 ROOT
