@<TRIPOS>MOLECULE
SXZ
   59    61     1     0     0
SMALL
bcc


@<TRIPOS>ATOM
      1 O           -6.0510     2.6780    -1.0320 o          1 SXZ      -0.824800
      2 C           -5.6300     2.9100     0.1170 c          1 SXZ       0.926600
      3 OXT         -5.8030     3.9390     0.7920 o          1 SXZ      -0.824800
      4 CA          -4.7540     1.8160     0.7810 c3         1 SXZ      -0.047300
      5 N           -4.8520     0.5880     0.0280 ns         1 SXZ      -0.528900
      6 CB          -3.3120     2.3320     0.8820 c3         1 SXZ      -0.062400
      7 CG          -2.3540     1.3150     1.4810 c3         1 SXZ       0.032700
      8 SD          -0.7070     2.0650     1.6650 ss         1 SXZ      -0.348200
      9 C5           0.2720     0.5930     2.0660 c3         1 SXZ       0.000700
     10 C4           0.5730    -0.2760     0.8680 c5         1 SXZ       0.144100
     11 O4           1.3620     0.4400    -0.0800 os         1 SXZ      -0.375600
     12 C1           2.3410    -0.3800    -0.6420 c5         1 SXZ       0.265800
     13 C2           2.0610    -1.8040    -0.1620 c5         1 SXZ       0.076100
     14 O2           1.1580    -2.3830    -1.0620 oh         1 SXZ      -0.578800
     15 C3           1.3910    -1.5260     1.1880 c5         1 SXZ       0.063100
     16 O3           0.5470    -2.5500     1.6270 oh         1 SXZ      -0.575800
     17 N9           3.6550     0.0810    -0.2070 na         1 SXZ      -0.274000
     18 C8           3.9700     0.9860     0.7690 cc         1 SXZ       0.425700
     19 N7           5.2500     1.1870     0.8930 nd         1 SXZ      -0.568100
     20 C11          5.8160     0.3760    -0.0540 ca         1 SXZ      -0.227200
     21 C6           7.1470     0.1320    -0.4400 ca         1 SXZ       0.776200
     22 N6           8.1880     0.7310     0.1410 nv         1 SXZ      -0.961500
     23 N1           7.3620    -0.7370    -1.4340 nb         1 SXZ      -0.836000
     24 C14          6.3230    -1.3310    -2.0140 ca         1 SXZ       0.699900
     25 N3           5.0370    -1.1880    -1.7420 nb         1 SXZ      -0.740000
     26 C12          4.8400    -0.3190    -0.7510 ca         1 SXZ       0.443800
     27 C13         -4.9490    -0.6370     0.5620 c          1 SXZ       0.654100
     28 O1          -4.8240    -0.8670     1.7620 o          1 SXZ      -0.662100
     29 C15         -5.2330    -1.7540    -0.4190 c3         1 SXZ      -0.157400
     30 C7          -6.5470    -2.4780    -0.1060 c3         1 SXZ      -0.052700
     31 C9          -7.7370    -1.5270    -0.1910 c3         1 SXZ      -0.089100
     32 C10         -6.7260    -3.6620    -1.0490 c3         1 SXZ      -0.089100
     33 H2          -5.1270     1.6310     1.7920 h1         1 SXZ       0.062700
     34 H3          -5.1150     0.7190    -0.9390 hn         1 SXZ       0.333500
     35 H4          -2.9560     2.6180    -0.1130 hc         1 SXZ       0.059200
     36 H5          -3.3230     3.2380     1.4900 hc         1 SXZ       0.059200
     37 H6          -2.7020     0.9710     2.4550 h1         1 SXZ       0.060700
     38 H7          -2.2740     0.4490     0.8240 h1         1 SXZ       0.060700
     39 H8           1.1950     0.9450     2.5320 h1         1 SXZ       0.070700
     40 H9          -0.2580     0.0030     2.8170 h1         1 SXZ       0.070700
     41 H10         -0.3660    -0.5860     0.3940 h1         1 SXZ       0.093700
     42 H11          2.3200    -0.3140    -1.7330 h2         1 SXZ       0.122700
     43 H12          2.9790    -2.3960    -0.0670 h1         1 SXZ       0.069700
     44 H13          0.6380    -3.0380    -0.5800 ho         1 SXZ       0.425000
     45 H14          2.1620    -1.2900     1.9340 h1         1 SXZ       0.051700
     46 H15          1.0700    -3.2060     2.1000 ho         1 SXZ       0.411000
     47 H16          3.2150     1.4850     1.3550 h5         1 SXZ       0.082800
     48 H17          8.0590     1.3830     0.8950 hn         1 SXZ       0.448800
     49 H18          9.1240     0.5330    -0.1660 hn         1 SXZ       0.448800
     50 H19          6.5680    -2.0230    -2.8130 h5         1 SXZ       0.042100
     51 H20         -5.2580    -1.3830    -1.4480 hc         1 SXZ       0.048200
     52 H21         -4.4040    -2.4670    -0.3600 hc         1 SXZ       0.048200
     53 H22         -6.4840    -2.8630     0.9160 hc         1 SXZ       0.058700
     54 H23         -8.6720    -2.0540    -0.0020 hc         1 SXZ       0.031200
     55 H24         -7.6680    -0.7160     0.5360 hc         1 SXZ       0.031200
     56 H25         -7.8060    -1.0770    -1.1840 hc         1 SXZ       0.031200
     57 H26         -5.8860    -4.3540    -0.9820 hc         1 SXZ       0.031200
     58 H27         -7.6360    -4.2160    -0.8150 hc         1 SXZ       0.031200
     59 H28         -6.8000    -3.3270    -2.0870 hc         1 SXZ       0.031200
@<TRIPOS>BOND
     1     1     2 1   
     2     2     3 1   
     3     2     4 1   
     4     4     5 1   
     5     4     6 1   
     6     4    33 1   
     7     5    27 1   
     8     5    34 1   
     9     6     7 1   
    10     6    35 1   
    11     6    36 1   
    12     7     8 1   
    13     7    37 1   
    14     7    38 1   
    15     8     9 1   
    16     9    10 1   
    17     9    39 1   
    18     9    40 1   
    19    10    11 1   
    20    10    15 1   
    21    10    41 1   
    22    11    12 1   
    23    12    13 1   
    24    12    17 1   
    25    12    42 1   
    26    13    14 1   
    27    13    15 1   
    28    13    43 1   
    29    14    44 1   
    30    15    16 1   
    31    15    45 1   
    32    16    46 1   
    33    17    18 1   
    34    17    26 1   
    35    18    19 2   
    36    18    47 1   
    37    19    20 1   
    38    20    21 ar  
    39    20    26 ar  
    40    21    22 1   
    41    21    23 ar  
    42    22    48 1   
    43    22    49 1   
    44    23    24 ar  
    45    24    25 ar  
    46    24    50 1   
    47    25    26 ar  
    48    27    28 2   
    49    27    29 1   
    50    29    30 1   
    51    29    51 1   
    52    29    52 1   
    53    30    31 1   
    54    30    32 1   
    55    30    53 1   
    56    31    54 1   
    57    31    55 1   
    58    31    56 1   
    59    32    57 1   
    60    32    58 1   
    61    32    59 1   
@<TRIPOS>SUBSTRUCTURE
     1 SXZ         1 TEMP              0 ****  ****    0 ROOT
