@<TRIPOS>MOLECULE
SY0
   44    45     1     0     0
SMALL
abcg2


@<TRIPOS>ATOM
      1 C1          -6.6990    -9.0900    -6.7560 c3         1 SY0      -0.111100
      2 C2          -5.7520    -8.9200    -5.5820 c3         1 SY0       0.103000
      3 C3          -5.8090    -9.2150    -3.1430 c          1 SY0       0.575100
      4 C7          -6.9290    -6.3130     0.2490 c3         1 SY0      -0.002400
      5 C8          -9.3960    -5.9500    -0.0060 cc         1 SY0      -0.153000
      6 C9         -10.1980    -5.3870    -0.9870 cd         1 SY0      -0.119000
      7 C10        -11.6490    -5.2920    -1.0030 cd         1 SY0      -0.136000
      8 C11        -12.4570    -4.2660    -1.5940 cd         1 SY0       0.297300
      9 C12        -12.0120    -3.0590    -2.3460 c3         1 SY0      -0.135400
     10 C13        -12.5560    -6.1450    -0.4440 cc         1 SY0       0.198300
     11 C14        -12.4280    -7.4120     0.3130 c3         1 SY0      -0.137400
     12 C15         -9.2750    -4.9300    -1.9590 cd         1 SY0       0.255900
     13 N1          -6.4330    -9.2240    -4.3270 ns         1 SY0      -0.507900
     14 O1          -4.6080    -8.9690    -3.0220 o          1 SY0      -0.587100
     15 C4          -6.6700    -9.4850    -1.8950 c3         1 SY0       0.030700
     16 C5          -7.9150   -10.3370    -2.1110 c3         1 SY0      -0.106100
     17 N2          -7.0280    -8.2010    -1.3040 ns         1 SY0      -0.495900
     18 C6          -6.4260    -7.6780    -0.2240 c          1 SY0       0.592100
     19 O2          -5.5140    -8.2170     0.3970 o          1 SY0      -0.583100
     20 N3          -8.1120    -5.8120    -0.4100 na         1 SY0       0.105800
     21 N4         -13.7310    -4.4870    -1.3950 nc         1 SY0      -0.358300
     22 O3         -13.8040    -5.6840    -0.6630 os         1 SY0      -0.094700
     23 N5          -8.0200    -5.1910    -1.6080 nc         1 SY0      -0.519800
     24 H1          -6.1820    -8.8580    -7.6880 hc         1 SY0       0.042700
     25 H2          -7.0680   -10.1170    -6.8160 hc         1 SY0       0.042700
     26 H3          -7.5570    -8.4200    -6.6670 hc         1 SY0       0.042700
     27 H4          -4.8890    -9.5830    -5.6810 h1         1 SY0       0.054700
     28 H5          -5.3670    -7.8970    -5.5410 h1         1 SY0       0.054700
     29 H13         -6.1190    -5.5970     0.1080 h1         1 SY0       0.098700
     30 H12         -7.1300    -6.3930     1.3160 h1         1 SY0       0.098700
     31 H14         -9.6390    -6.4120     0.9360 h4         1 SY0       0.159000
     32 H15        -12.8530    -2.3900    -2.5180 hc         1 SY0       0.058700
     33 H16        -11.2380    -2.5270    -1.7900 hc         1 SY0       0.058700
     34 H17        -11.5880    -3.3410    -3.3120 hc         1 SY0       0.058700
     35 H18        -13.2700    -8.0690     0.0980 hc         1 SY0       0.062033
     36 H19        -11.5010    -7.9180     0.0410 hc         1 SY0       0.062033
     37 H20        -12.4070    -7.2240     1.3890 hc         1 SY0       0.062033
     38 H21         -9.4780    -4.4300    -2.8930 h4         1 SY0       0.043100
     39 H6          -7.4200    -9.4200    -4.3630 hn         1 SY0       0.312500
     40 H7          -6.0030    -9.9740    -1.1870 h1         1 SY0       0.111700
     41 H10         -8.3750   -10.5540    -1.1470 hc         1 SY0       0.047033
     42 H8          -8.6580    -9.8200    -2.7230 hc         1 SY0       0.047033
     43 H9          -7.6570   -11.2790    -2.5940 hc         1 SY0       0.047033
     44 H11         -7.7400    -7.6590    -1.7710 hn         1 SY0       0.325500
@<TRIPOS>BOND
     1     1     2 1   
     2     1    24 1   
     3     1    25 1   
     4     1    26 1   
     5     2    13 1   
     6     2    27 1   
     7     2    28 1   
     8     3    13 1   
     9     3    14 2   
    10     3    15 1   
    11     4    18 1   
    12     4    20 1   
    13     4    29 1   
    14     4    30 1   
    15     5     6 2   
    16     5    20 1   
    17     5    31 1   
    18     6     7 1   
    19     6    12 1   
    20     7     8 1   
    21     7    10 2   
    22     8     9 1   
    23     8    21 2   
    24     9    32 1   
    25     9    33 1   
    26     9    34 1   
    27    10    11 1   
    28    10    22 1   
    29    11    35 1   
    30    11    36 1   
    31    11    37 1   
    32    12    23 2   
    33    12    38 1   
    34    13    39 1   
    35    15    16 1   
    36    15    17 1   
    37    15    40 1   
    38    16    41 1   
    39    16    42 1   
    40    16    43 1   
    41    17    18 1   
    42    17    44 1   
    43    18    19 2   
    44    20    23 1   
    45    21    22 1   
@<TRIPOS>SUBSTRUCTURE
     1 SY0         1 TEMP              0 ****  ****    0 ROOT
