@<TRIPOS>MOLECULE
SY0
   44    45     1     0     0
SMALL
No Charge or Current Charge


@<TRIPOS>ATOM
      1 C1          -5.7760    -9.5510    -7.0340 c3         1 SY0      -0.111100
      2 C2          -4.8400    -9.9270    -5.8730 c3         1 SY0       0.103000
      3 C3          -5.9000    -8.8710    -3.8430 c          1 SY0       0.575100
      4 C7          -7.2250    -6.5450     0.2540 c3         1 SY0      -0.002400
      5 C8          -9.7320    -6.0850     0.1830 cc         1 SY0      -0.153000
      6 C9         -10.4640    -5.2080    -0.5700 cd         1 SY0      -0.119000
      7 C10        -11.9100    -5.0640    -0.5090 cd         1 SY0      -0.136000
      8 C11        -12.7360    -4.1820    -1.2520 cd         1 SY0       0.297300
      9 C12        -12.3360    -3.1690    -2.2910 c3         1 SY0      -0.135400
     10 C13        -12.7550    -5.7780     0.3000 cc         1 SY0       0.198300
     11 C14        -12.5610    -6.8620     1.3230 c3         1 SY0      -0.137400
     12 C15         -9.5560    -4.4960    -1.3900 cd         1 SY0       0.255900
     13 N1          -5.5460    -9.9760    -4.5910 ns         1 SY0      -0.507900
     14 O1          -5.6040    -7.7340    -4.1910 o          1 SY0      -0.587100
     15 C4          -6.6830    -9.1800    -2.5340 c3         1 SY0       0.030700
     16 C5          -8.0750    -9.7930    -2.8260 c3         1 SY0      -0.106100
     17 N2          -6.8180    -7.9580    -1.7090 ns         1 SY0      -0.495900
     18 C6          -7.0870    -7.9360    -0.3570 c          1 SY0       0.592100
     19 O2          -7.2050    -8.9610     0.3010 o          1 SY0      -0.583100
     20 N3          -8.4240    -5.8500    -0.2310 na         1 SY0       0.105800
     21 N4         -14.0130    -4.3180    -0.9440 nc         1 SY0      -0.358300
     22 O3         -14.0400    -5.3500     0.0610 os         1 SY0      -0.094700
     23 N5          -8.3060    -4.8750    -1.1990 nc         1 SY0      -0.519800
     24 H1          -5.2230    -9.5420    -7.9810 hc         1 SY0       0.042700
     25 H2          -6.5940   -10.2770    -7.1210 hc         1 SY0       0.042700
     26 H3          -6.2100    -8.5560    -6.8810 hc         1 SY0       0.042700
     27 H4          -4.3970   -10.9130    -6.0680 h1         1 SY0       0.054700
     28 H5          -4.0210    -9.1970    -5.8080 h1         1 SY0       0.054700
     29 H13         -6.3320    -5.9640    -0.0010 h1         1 SY0       0.098700
     30 H12         -7.2810    -6.6470     1.3420 h1         1 SY0       0.098700
     31 H14         -9.9810    -6.8210     0.9330 h4         1 SY0       0.159000
     32 H15        -13.2070    -2.6350    -2.6870 hc         1 SY0       0.058700
     33 H16        -11.6590    -2.4200    -1.8660 hc         1 SY0       0.058700
     34 H17        -11.8370    -3.6540    -3.1370 hc         1 SY0       0.058700
     35 H18        -13.5210    -7.1710     1.7520 hc         1 SY0       0.062033
     36 H19        -12.1010    -7.7490     0.8720 hc         1 SY0       0.062033
     37 H20        -11.9280    -6.5140     2.1470 hc         1 SY0       0.062033
     38 H21         -9.7520    -3.7210    -2.1170 h4         1 SY0       0.043100
     39 H6          -5.8240   -10.8820    -4.2300 hn         1 SY0       0.312500
     40 H7          -6.0840    -9.9140    -1.9790 h1         1 SY0       0.111700
     41 H10         -8.6010   -10.0290    -1.8940 hc         1 SY0       0.047033
     42 H8          -8.6930    -9.0920    -3.4010 hc         1 SY0       0.047033
     43 H9          -7.9830   -10.7210    -3.4030 hc         1 SY0       0.047033
     44 H11         -6.7370    -7.0580    -2.1740 hn         1 SY0       0.325500
@<TRIPOS>BOND
     1     1     2 1   
     2     1    24 1   
     3     1    25 1   
     4     1    26 1   
     5     2    13 1   
     6     2    27 1   
     7     2    28 1   
     8     3    13 1   
     9     3    14 2   
    10     3    15 1   
    11     4    18 1   
    12     4    20 1   
    13     4    29 1   
    14     4    30 1   
    15     5     6 2   
    16     5    20 1   
    17     5    31 1   
    18     6     7 1   
    19     6    12 1   
    20     7     8 1   
    21     7    10 2   
    22     8     9 1   
    23     8    21 2   
    24     9    32 1   
    25     9    33 1   
    26     9    34 1   
    27    10    11 1   
    28    10    22 1   
    29    11    35 1   
    30    11    36 1   
    31    11    37 1   
    32    12    23 2   
    33    12    38 1   
    34    13    39 1   
    35    15    16 1   
    36    15    17 1   
    37    15    40 1   
    38    16    41 1   
    39    16    42 1   
    40    16    43 1   
    41    17    18 1   
    42    17    44 1   
    43    18    19 2   
    44    20    23 1   
    45    21    22 1   
@<TRIPOS>SUBSTRUCTURE
     1 SY0         1 TEMP              0 ****  ****    0 ROOT
