@<TRIPOS>MOLECULE
SY3
   28    29     1     0     0
SMALL
No Charge or Current Charge


@<TRIPOS>ATOM
      1 N1          -2.8090     5.3680   -31.9980 nb         1 SY3      -0.648000
      2 C4           2.9200    11.9770   -32.0460 ca         1 SY3       0.173000
      3 C5           1.8920    11.0280   -31.9570 ca         1 SY3      -0.168000
      4 C6           2.1000     9.7080   -32.3980 ca         1 SY3      -0.021000
      5 C7           0.9670     7.5410   -31.6960 c          1 SY3       0.610700
      6 C8          -0.3550     6.8050   -31.8130 ca         1 SY3      -0.114600
      7 C10         -2.6720     6.5950   -32.5510 ca         1 SY3       0.329400
      8 N            1.0170     8.8000   -32.2750 ns         1 SY3      -0.161000
      9 O            1.9240     7.0510   -31.1050 o          1 SY3      -0.571100
     10 C1           3.3470     9.3510   -32.9760 ca         1 SY3      -0.072300
     11 C11         -1.7400     4.8480   -31.3550 ca         1 SY3       0.329400
     12 C12         -0.5120     5.5220   -31.2400 ca         1 SY3      -0.128000
     13 C2           4.3730    10.3170   -33.0560 ca         1 SY3      -0.079000
     14 C3           4.1620    11.6240   -32.5870 ca         1 SY3      -0.146000
     15 C9          -1.4810     7.3400   -32.4850 ca         1 SY3      -0.128000
     16 F            2.7120    13.2370   -31.6060 f          1 SY3      -0.181000
     17 H1           0.9360    11.3200   -31.5290 ha         1 SY3       0.134000
     18 H2          -3.5460     6.9940   -33.0650 h4         1 SY3       0.025600
     19 H3           0.1450     9.1300   -32.6660 hn         1 SY3       0.159000
     20 H4           4.0040     7.2820   -32.8020 hc         1 SY3       0.051033
     21 H5           2.7100     7.5220   -33.9960 hc         1 SY3       0.051033
     22 H6           4.3570     8.0130   -34.3700 hc         1 SY3       0.051033
     23 H7          -1.8710     3.8590   -30.9170 h4         1 SY3       0.025600
     24 H8           0.3060     5.0420   -30.7080 ha         1 SY3       0.135500
     25 H9           5.3350    10.0560   -33.4930 ha         1 SY3       0.120000
     26 H10          4.9550    12.3650   -32.6540 ha         1 SY3       0.135000
     27 H11         -1.4590     8.3170   -32.9600 ha         1 SY3       0.135500
     28 C            3.6140     7.9660   -33.5650 c3         1 SY3      -0.047800
@<TRIPOS>BOND
     1     1     7 ar  
     2     1    11 ar  
     3     2     3 ar  
     4     2    14 ar  
     5     2    16 1   
     6     3     4 ar  
     7     3    17 1   
     8     4     8 1   
     9     4    10 ar  
    10     5     6 1   
    11     5     8 1   
    12     5     9 2   
    13     6    12 ar  
    14     6    15 ar  
    15     7    15 ar  
    16     7    18 1   
    17     8    19 1   
    18    10    13 ar  
    19    10    28 1   
    20    11    12 ar  
    21    11    23 1   
    22    12    24 1   
    23    13    14 ar  
    24    13    25 1   
    25    14    26 1   
    26    15    27 1   
    27    20    28 1   
    28    21    28 1   
    29    22    28 1   
@<TRIPOS>SUBSTRUCTURE
     1 SY3         1 TEMP              0 ****  ****    0 ROOT
