@<TRIPOS>MOLECULE
SY3
   28    29     1     0     0
SMALL
abcg2


@<TRIPOS>ATOM
      1 N1          -2.6450     5.3020   -31.9910 nb         1 SY3      -0.648000
      2 C4           3.0600    11.8110   -31.7310 ca         1 SY3       0.173000
      3 C5           1.9900    10.9420   -31.6660 ca         1 SY3      -0.168000
      4 C6           2.0750     9.7250   -32.3410 ca         1 SY3      -0.021000
      5 C7           0.9730     7.6080   -31.7690 c          1 SY3       0.610700
      6 C8          -0.3140     6.8420   -31.8630 ca         1 SY3      -0.114600
      7 C10         -2.3830     6.2400   -32.9040 ca         1 SY3       0.329400
      8 N            0.9500     8.8600   -32.2940 ns         1 SY3      -0.161000
      9 O            1.9680     7.1090   -31.2560 o          1 SY3      -0.571100
     10 C1           3.2140     9.3840   -33.0850 ca         1 SY3      -0.072300
     11 C11         -1.7490     5.1250   -31.0140 ca         1 SY3       0.329400
     12 C12         -0.5750     5.8570   -30.9130 ca         1 SY3      -0.128000
     13 C2           4.2700    10.2970   -33.1030 ca         1 SY3      -0.079000
     14 C3           4.2120    11.5130   -32.4330 ca         1 SY3      -0.146000
     15 C9          -1.2420     7.0340   -32.8830 ca         1 SY3      -0.128000
     16 F            2.9760    12.9960   -31.0730 f          1 SY3      -0.181000
     17 H1           1.1070    11.1980   -31.0960 ha         1 SY3       0.134000
     18 H2          -3.1140     6.3640   -33.6960 h4         1 SY3       0.025600
     19 H3           0.0500     9.2740   -32.4840 hn         1 SY3       0.159000
     20 H4           3.5030     7.2570   -33.2150 hc         1 SY3       0.051033
     21 H5           2.3590     7.8970   -34.3830 hc         1 SY3       0.051033
     22 H6           4.0950     8.1690   -34.6110 hc         1 SY3       0.051033
     23 H7          -1.9780     4.3600   -30.2800 h4         1 SY3       0.025600
     24 H8           0.1250     5.6700   -30.1110 ha         1 SY3       0.135500
     25 H9           5.1570    10.0560   -33.6750 ha         1 SY3       0.120000
     26 H10          5.0320    12.2180   -32.4630 ha         1 SY3       0.135000
     27 H11         -1.0850     7.7620   -33.6670 ha         1 SY3       0.135500
     28 C            3.3000     8.1070   -33.8690 c3         1 SY3      -0.047800
@<TRIPOS>BOND
     1     1     7 ar  
     2     1    11 ar  
     3     2     3 ar  
     4     2    14 ar  
     5     2    16 1   
     6     3     4 ar  
     7     3    17 1   
     8     4     8 1   
     9     4    10 ar  
    10     5     6 1   
    11     5     8 1   
    12     5     9 2   
    13     6    12 ar  
    14     6    15 ar  
    15     7    15 ar  
    16     7    18 1   
    17     8    19 1   
    18    10    13 ar  
    19    10    28 1   
    20    11    12 ar  
    21    11    23 1   
    22    12    24 1   
    23    13    14 ar  
    24    13    25 1   
    25    14    26 1   
    26    15    27 1   
    27    20    28 1   
    28    21    28 1   
    29    22    28 1   
@<TRIPOS>SUBSTRUCTURE
     1 SY3         1 TEMP              0 ****  ****    0 ROOT
