@<TRIPOS>MOLECULE
SY4
   28    28     1     0     0
SMALL
abcg2


@<TRIPOS>ATOM
      1 C4          29.1460    15.8940    38.0000 ca         1 SY4      -0.138000
      2 C5          28.5370    15.6320    36.7750 ca         1 SY4       0.255000
      3 C6          27.1510    15.8060    36.7260 ca         1 SY4       0.139000
      4 N1          29.2570    15.2730    35.6560 nv         1 SY4      -1.051000
      5 C7          26.4030    16.2220    37.8030 ca         1 SY4      -0.153000
      6 C8          27.0560    16.4880    38.9920 ca         1 SY4       0.167000
      7 F1          26.5260    15.5510    35.5650 f          1 SY4      -0.173000
      8 F           26.3400    16.9110    40.0430 f          1 SY4      -0.164000
      9 C3          28.4260    16.3240    39.1100 ca         1 SY4       0.224000
     10 N           29.0640    16.6150    40.3400 nu         1 SY4      -0.895100
     11 S           29.4330    15.3570    41.3770 s6         1 SY4       1.167100
     12 O           29.6570    14.1290    40.6260 o          1 SY4      -0.537000
     13 O1          30.4910    15.8640    42.2390 o          1 SY4      -0.537000
     14 C2          27.9360    15.1500    42.3250 c3         1 SY4      -0.297400
     15 C1          27.6040    16.3450    43.2030 c3         1 SY4      -0.044400
     16 C           26.2850    16.1240    43.9310 c3         1 SY4      -0.085100
     17 H1          30.2180    15.7660    38.0920 ha         1 SY4       0.129000
     18 H2          30.1540    14.8570    35.8540 hn         1 SY4       0.457000
     19 H3          28.7560    14.7340    34.9670 hn         1 SY4       0.457000
     20 H4          25.3310    16.3450    37.7150 ha         1 SY4       0.153000
     21 H5          29.8280    17.2820    40.2910 hn         1 SY4       0.503000
     22 H6          27.1410    14.9280    41.6120 h1         1 SY4       0.101200
     23 H7          28.1040    14.2490    42.9200 h1         1 SY4       0.101200
     24 H8          27.5450    17.2470    42.5930 hc         1 SY4       0.057700
     25 H9          28.4030    16.4970    43.9290 hc         1 SY4       0.057700
     26 H10         26.0640    16.9680    44.5840 hc         1 SY4       0.036033
     27 H11         25.4560    16.0180    43.2310 hc         1 SY4       0.036033
     28 H12         26.3180    15.2260    44.5500 hc         1 SY4       0.036033
@<TRIPOS>BOND
     1     1     2 ar  
     2     1     9 ar  
     3     1    17 1   
     4     2     3 ar  
     5     2     4 1   
     6     3     5 ar  
     7     3     7 1   
     8     4    18 1   
     9     4    19 1   
    10     5     6 ar  
    11     5    20 1   
    12     6     8 1   
    13     6     9 ar  
    14     9    10 1   
    15    10    11 1   
    16    10    21 1   
    17    11    12 2   
    18    11    13 2   
    19    11    14 1   
    20    14    15 1   
    21    14    22 1   
    22    14    23 1   
    23    15    16 1   
    24    15    24 1   
    25    15    25 1   
    26    16    26 1   
    27    16    27 1   
    28    16    28 1   
@<TRIPOS>SUBSTRUCTURE
     1 SY4         1 TEMP              0 ****  ****    0 ROOT
