@<TRIPOS>MOLECULE
SY4
   28    28     1     0     0
SMALL
No Charge or Current Charge


@<TRIPOS>ATOM
      1 C4          29.1760    15.8930    37.9610 ca         1 SY4      -0.138000
      2 C5          28.4770    15.6500    36.7670 ca         1 SY4       0.255000
      3 C6          27.0660    15.7830    36.7510 ca         1 SY4       0.139000
      4 N1          29.1850    15.2880    35.6360 nv         1 SY4      -1.051000
      5 C7          26.3740    16.1590    37.9110 ca         1 SY4      -0.153000
      6 C8          27.0820    16.3980    39.0990 ca         1 SY4       0.167000
      7 F1          26.3650    15.5560    35.6130 f          1 SY4      -0.173000
      8 F           26.3890    16.7990    40.1890 f          1 SY4      -0.164000
      9 C3          28.4940    16.2540    39.1390 ca         1 SY4       0.224000
     10 N           29.2510    16.4860    40.2960 nu         1 SY4      -0.895100
     11 S           29.5270    15.3590    41.4860 s6         1 SY4       1.167100
     12 O           29.8520    14.1220    40.7740 o          1 SY4      -0.537000
     13 O1          30.5150    15.9780    42.3690 o          1 SY4      -0.537000
     14 C2          27.9750    15.1350    42.3700 c3         1 SY4      -0.297400
     15 C1          27.5330    16.3790    43.1810 c3         1 SY4      -0.044400
     16 C           26.1610    16.1850    43.8520 c3         1 SY4      -0.085100
     17 H1          30.2560    15.7890    37.9770 ha         1 SY4       0.129000
     18 H2          30.1830    15.0890    35.6870 hn         1 SY4       0.457000
     19 H3          28.6890    15.0220    34.7860 hn         1 SY4       0.457000
     20 H4          25.2940    16.2720    37.8890 ha         1 SY4       0.153000
     21 H5          30.2010    16.7880    40.1180 hn         1 SY4       0.503000
     22 H6          27.2290    14.8610    41.6180 h1         1 SY4       0.101200
     23 H7          28.1340    14.2830    43.0390 h1         1 SY4       0.101200
     24 H8          27.4890    17.2590    42.5280 hc         1 SY4       0.057700
     25 H9          28.2800    16.5980    43.9550 hc         1 SY4       0.057700
     26 H10         25.8830    17.0810    44.4200 hc         1 SY4       0.036033
     27 H11         25.3850    16.0020    43.0990 hc         1 SY4       0.036033
     28 H12         26.1840    15.3330    44.5420 hc         1 SY4       0.036033
@<TRIPOS>BOND
     1     1     2 ar  
     2     1     9 ar  
     3     1    17 1   
     4     2     3 ar  
     5     2     4 1   
     6     3     5 ar  
     7     3     7 1   
     8     4    18 1   
     9     4    19 1   
    10     5     6 ar  
    11     5    20 1   
    12     6     8 1   
    13     6     9 ar  
    14     9    10 1   
    15    10    11 1   
    16    10    21 1   
    17    11    12 2   
    18    11    13 2   
    19    11    14 1   
    20    14    15 1   
    21    14    22 1   
    22    14    23 1   
    23    15    16 1   
    24    15    24 1   
    25    15    25 1   
    26    16    26 1   
    27    16    27 1   
    28    16    28 1   
@<TRIPOS>SUBSTRUCTURE
     1 SY4         1 TEMP              0 ****  ****    0 ROOT
