@<TRIPOS>MOLECULE
SY6
   47    50     1     0     0
SMALL
No Charge or Current Charge


@<TRIPOS>ATOM
      1 C1         -17.2120   -27.7100     5.6250 c5         1 SY6      -0.138400
      2 C2         -16.3750   -28.7370     4.8260 c5         1 SY6       0.155300
      3 C3         -17.4740   -29.3460     3.8970 c5         1 SY6       0.226800
      4 N4         -18.3400   -28.1680     3.6140 nh         1 SY6      -0.790300
      5 C5         -18.0120   -27.0160     4.4940 c5         1 SY6       0.234800
      6 O6         -15.7600   -29.7000     5.6870 oh         1 SY6      -0.647000
      7 C7         -19.3030   -28.1300     2.5910 ca         1 SY6       0.657900
      8 C8         -19.6670   -29.2650     1.8540 ca         1 SY6      -0.199000
      9 C9         -20.6350   -29.1510     0.8490 ca         1 SY6      -0.033000
     10 C10        -21.2170   -27.8840     0.6120 ca         1 SY6      -0.202000
     11 C11        -20.7920   -26.7880     1.4070 ca         1 SY6       0.325000
     12 N12        -19.8510   -26.9240     2.3760 nb         1 SY6      -0.762000
     13 C13        -21.3910   -25.5300     1.1520 ca         1 SY6       0.321900
     14 N14        -22.3350   -25.3070     0.2060 nb         1 SY6      -0.581000
     15 C15        -22.7550   -26.3530    -0.5680 ca         1 SY6       0.214500
     16 C16        -22.2060   -27.6690    -0.3850 ca         1 SY6       0.168100
     17 O17        -22.6110   -28.7340    -1.1520 oh         1 SY6      -0.545100
     18 C18        -23.8340   -26.0160    -1.6240 c          1 SY6       0.520600
     19 N19        -24.3140   -27.0320    -2.4290 ns         1 SY6      -0.512900
     20 C20        -25.3160   -26.8710    -3.4820 c3         1 SY6       0.158300
     21 C21        -24.6930   -26.3530    -4.7670 ca         1 SY6      -0.128300
     22 C22        -24.8430   -25.0030    -5.1400 ca         1 SY6       0.340900
     23 N23        -24.3120   -24.4830    -6.2710 nb         1 SY6      -0.633000
     24 C24        -23.5960   -25.3090    -7.0790 ca         1 SY6       0.421000
     25 C25        -23.3960   -26.6710    -6.7780 ca         1 SY6      -0.118000
     26 C26        -23.9510   -27.2060    -5.6040 ca         1 SY6      -0.065000
     27 C27        -23.0330   -24.7400    -8.2830 cg         1 SY6       0.225000
     28 O28        -24.2750   -24.8790    -1.7680 o          1 SY6      -0.564100
     29 N29        -22.5730   -24.2900    -9.2610 n1         1 SY6      -0.440000
     30 H1         -16.5950   -27.0010     6.1880 hc         1 SY6       0.065200
     31 H2         -17.8840   -28.2030     6.3370 hc         1 SY6       0.065200
     32 H3         -15.6140   -28.2220     4.2220 h1         1 SY6       0.041700
     33 H4         -18.0370   -30.1390     4.4080 h1         1 SY6       0.061700
     34 H5         -17.0260   -29.7640     2.9850 h1         1 SY6       0.061700
     35 H6         -17.4000   -26.2720     3.9650 h1         1 SY6       0.064200
     36 H7         -18.9060   -26.5130     4.8910 h1         1 SY6       0.064200
     37 H8         -15.1220   -29.2100     6.2520 ho         1 SY6       0.454000
     38 H9         -19.2120   -30.2280     2.0560 ha         1 SY6       0.128000
     39 H10        -20.9090   -30.0380     0.2840 ha         1 SY6       0.110000
     40 H11        -21.0950   -24.6600     1.7370 h4         1 SY6       0.044100
     41 H12        -22.1140   -29.5310    -0.8750 ho         1 SY6       0.479000
     42 H13        -23.9170   -27.9540    -2.2710 hn         1 SY6       0.330500
     43 H14        -26.1030   -26.1860    -3.1370 h1         1 SY6       0.065700
     44 H15        -25.7870   -27.8450    -3.6720 h1         1 SY6       0.065700
     45 H16        -25.4100   -24.3130    -4.5160 h4         1 SY6       0.025100
     46 H17        -22.8160   -27.3010    -7.4490 ha         1 SY6       0.135000
     47 H18        -23.8080   -28.2550    -5.3510 ha         1 SY6       0.129000
@<TRIPOS>BOND
     1     1     2 1   
     2     1     5 1   
     3     1    30 1   
     4     1    31 1   
     5     2     3 1   
     6     2     6 1   
     7     2    32 1   
     8     3     4 1   
     9     3    33 1   
    10     3    34 1   
    11     4     5 1   
    12     4     7 1   
    13     5    35 1   
    14     5    36 1   
    15     6    37 1   
    16     7     8 ar  
    17     7    12 ar  
    18     8     9 ar  
    19     8    38 1   
    20     9    10 ar  
    21     9    39 1   
    22    10    11 ar  
    23    10    16 ar  
    24    11    12 ar  
    25    11    13 ar  
    26    13    14 ar  
    27    13    40 1   
    28    14    15 ar  
    29    15    16 ar  
    30    15    18 1   
    31    16    17 1   
    32    17    41 1   
    33    18    19 1   
    34    18    28 2   
    35    19    20 1   
    36    19    42 1   
    37    20    21 1   
    38    20    43 1   
    39    20    44 1   
    40    21    22 ar  
    41    21    26 ar  
    42    22    23 ar  
    43    22    45 1   
    44    23    24 ar  
    45    24    25 ar  
    46    24    27 1   
    47    25    26 ar  
    48    25    46 1   
    49    26    47 1   
    50    27    29 3   
@<TRIPOS>SUBSTRUCTURE
     1 SY6         1 TEMP              0 ****  ****    0 ROOT
