@<TRIPOS>MOLECULE
SY6
   47    50     1     0     0
SMALL
abcg2


@<TRIPOS>ATOM
      1 C1         -16.8710   -27.4670     5.1800 c5         1 SY6      -0.138400
      2 C2         -16.4620   -28.8400     4.6570 c5         1 SY6       0.155300
      3 C3         -17.7600   -29.3720     4.0580 c5         1 SY6       0.226800
      4 N4         -18.4100   -28.1700     3.5710 nh         1 SY6      -0.790300
      5 C5         -17.8010   -26.9510     4.0920 c5         1 SY6       0.234800
      6 O6         -15.9780   -29.7410     5.6140 oh         1 SY6      -0.647000
      7 C7         -19.4100   -28.1480     2.6770 ca         1 SY6       0.657900
      8 C8         -20.0160   -29.3690     2.2310 ca         1 SY6      -0.199000
      9 C9         -21.0090   -29.3210     1.3090 ca         1 SY6      -0.033000
     10 C10        -21.4420   -28.0670     0.7980 ca         1 SY6      -0.202000
     11 C11        -20.8010   -26.9270     1.3230 ca         1 SY6       0.325000
     12 N12        -19.8180   -26.9720     2.2340 nb         1 SY6      -0.762000
     13 C13        -21.2320   -25.6640     0.8440 ca         1 SY6       0.321900
     14 N14        -22.1630   -25.5280    -0.0490 nb         1 SY6      -0.581000
     15 C15        -22.7810   -26.6010    -0.5830 ca         1 SY6       0.214500
     16 C16        -22.4500   -27.8880    -0.1790 ca         1 SY6       0.168100
     17 O17        -23.1050   -28.9270    -0.7150 oh         1 SY6      -0.545100
     18 C18        -23.8110   -26.2330    -1.6120 c          1 SY6       0.520600
     19 N19        -24.2200   -27.1910    -2.4700 ns         1 SY6      -0.512900
     20 C20        -25.1500   -26.9130    -3.5270 c3         1 SY6       0.158300
     21 C21        -24.5340   -26.2750    -4.7470 ca         1 SY6      -0.128300
     22 C22        -25.3670   -25.7840    -5.7560 ca         1 SY6       0.340900
     23 N23        -24.9300   -25.2510    -6.8800 nb         1 SY6      -0.633000
     24 C24        -23.6120   -25.1760    -7.0510 ca         1 SY6       0.421000
     25 C25        -22.6860   -25.6170    -6.1180 ca         1 SY6      -0.118000
     26 C26        -23.1660   -26.1790    -4.9440 ca         1 SY6      -0.065000
     27 C27        -23.1660   -24.6040    -8.2910 cg         1 SY6       0.225000
     28 O28        -24.2360   -25.0910    -1.6820 o          1 SY6      -0.564100
     29 N29        -22.7980   -24.1570    -9.2860 n1         1 SY6      -0.440000
     30 H1         -16.0260   -26.8000     5.3510 hc         1 SY6       0.065200
     31 H2         -17.4120   -27.5830     6.1230 hc         1 SY6       0.065200
     32 H3         -15.7360   -28.7010     3.8430 h1         1 SY6       0.041700
     33 H4         -18.3570   -29.8710     4.8300 h1         1 SY6       0.061700
     34 H5         -17.5770   -30.0870     3.2540 h1         1 SY6       0.061700
     35 H6         -17.2530   -26.4270     3.3040 h1         1 SY6       0.064200
     36 H7         -18.5580   -26.2650     4.4740 h1         1 SY6       0.064200
     37 H8         -15.1040   -29.4480     5.8910 ho         1 SY6       0.454000
     38 H9         -19.6990   -30.3230     2.6280 ha         1 SY6       0.128000
     39 H10        -21.4510   -30.2580     0.9950 ha         1 SY6       0.110000
     40 H11        -20.7600   -24.7680     1.2340 h4         1 SY6       0.044100
     41 H12        -22.7560   -29.7820    -0.4400 ho         1 SY6       0.479000
     42 H13        -23.8410   -28.1210    -2.4070 hn         1 SY6       0.330500
     43 H14        -25.9630   -26.2830    -3.1620 h1         1 SY6       0.065700
     44 H15        -25.6070   -27.8590    -3.8250 h1         1 SY6       0.065700
     45 H16        -26.4450   -25.8330    -5.6370 h4         1 SY6       0.025100
     46 H17        -21.6250   -25.5280    -6.3040 ha         1 SY6       0.135000
     47 H18        -22.4700   -26.5390    -4.1990 ha         1 SY6       0.129000
@<TRIPOS>BOND
     1     1     2 1   
     2     1     5 1   
     3     1    30 1   
     4     1    31 1   
     5     2     3 1   
     6     2     6 1   
     7     2    32 1   
     8     3     4 1   
     9     3    33 1   
    10     3    34 1   
    11     4     5 1   
    12     4     7 1   
    13     5    35 1   
    14     5    36 1   
    15     6    37 1   
    16     7     8 ar  
    17     7    12 ar  
    18     8     9 ar  
    19     8    38 1   
    20     9    10 ar  
    21     9    39 1   
    22    10    11 ar  
    23    10    16 ar  
    24    11    12 ar  
    25    11    13 ar  
    26    13    14 ar  
    27    13    40 1   
    28    14    15 ar  
    29    15    16 ar  
    30    15    18 1   
    31    16    17 1   
    32    17    41 1   
    33    18    19 1   
    34    18    28 2   
    35    19    20 1   
    36    19    42 1   
    37    20    21 1   
    38    20    43 1   
    39    20    44 1   
    40    21    22 ar  
    41    21    26 ar  
    42    22    23 ar  
    43    22    45 1   
    44    23    24 ar  
    45    24    25 ar  
    46    24    27 1   
    47    25    26 ar  
    48    25    46 1   
    49    26    47 1   
    50    27    29 3   
@<TRIPOS>SUBSTRUCTURE
     1 SY6         1 TEMP              0 ****  ****    0 ROOT
