@<TRIPOS>MOLECULE
SY7
   68    72     1     0     0
SMALL
No Charge or Current Charge


@<TRIPOS>ATOM
      1 O3          29.8180    14.6740    49.6400 os         1 SY7      -0.451300
      2 C4          32.7750    10.7230    45.8120 c3         1 SY7       0.247100
      3 C5          33.7450    12.2130    44.0350 c5         1 SY7       0.488000
      4 C6          34.8080    11.2080    43.5810 ca         1 SY7      -0.054300
      5 N1          36.7580     9.3390    42.7120 nb         1 SY7      -0.687000
      6 C7          35.9230    10.8830    44.3780 ca         1 SY7      -0.183000
      7 C8          36.8620     9.9540    43.9090 ca         1 SY7       0.370900
      8 N2          34.2830    13.5670    44.1240 n7         1 SY7      -0.879400
      9 C9          35.7000     9.6380    41.9360 ca         1 SY7       0.581300
     10 C10         34.5180     9.1220    39.8330 c3         1 SY7       0.150900
     11 C11         34.7120    10.5670    42.3320 ca         1 SY7      -0.228000
     12 C12         33.3070    14.3270    44.9570 c5         1 SY7       0.214800
     13 N3          30.3890    16.7530    42.7800 nb         1 SY7      -0.748000
     14 C13         32.2920    15.1720    44.1740 ca         1 SY7      -0.023300
     15 C14         31.5280    16.1540    44.8290 ca         1 SY7      -0.196000
     16 C15         30.5970    16.9140    44.1040 ca         1 SY7       0.368900
     17 N4          32.0720    14.2540    49.8920 nb         1 SY7      -0.689000
     18 C24         28.5950    14.7670    48.8870 c3         1 SY7       0.149900
     19 C23         31.0100    14.2910    49.0660 ca         1 SY7       0.580300
     20 C22         33.2640    13.8860    49.3780 ca         1 SY7       0.368900
     21 C21         33.4450    13.5460    48.0310 ca         1 SY7      -0.191000
     22 C25         31.1070    13.9620    47.6960 ca         1 SY7      -0.230000
     23 C20         32.3480    13.5810    47.1530 ca         1 SY7      -0.017300
     24 C19         32.4770    13.2140    45.6710 c5         1 SY7       0.246800
     25 C18         32.0680    15.0170    42.7910 ca         1 SY7      -0.157000
     26 C16         31.1190    15.8160    42.1380 ca         1 SY7       0.572300
     27 O2          30.9410    15.6190    40.7880 os         1 SY7      -0.468300
     28 C17         29.9850    16.3950    40.0380 c3         1 SY7       0.160900
     29 O1          35.6340     8.9750    40.7310 os         1 SY7      -0.450300
     30 N           33.3480    12.0400    45.4340 n3         1 SY7      -0.793600
     31 C3          31.5370    10.3220    45.0070 ca         1 SY7      -0.051300
     32 C2          31.6450     9.5420    43.8420 ca         1 SY7      -0.190000
     33 C26         30.2440    10.7060    45.4020 ca         1 SY7      -0.204000
     34 C27         29.1410    10.3210    44.6230 ca         1 SY7       0.376900
     35 N5          29.2550     9.5850    43.4970 nb         1 SY7      -0.751000
     36 C1          30.4940     9.2020    43.1180 ca         1 SY7       0.581300
     37 O           30.6600     8.4490    41.9790 os         1 SY7      -0.469300
     38 C           29.5340     8.0610    41.1680 c3         1 SY7       0.160900
     39 H4          32.5090    10.7270    46.8780 h1         1 SY7       0.070200
     40 H5          33.5340     9.9380    45.6930 h1         1 SY7       0.070200
     41 H6          32.8730    12.1670    43.3660 h2         1 SY7       0.067700
     42 H7          36.0600    11.3380    45.3550 ha         1 SY7       0.130000
     43 H8          37.7280     9.6910    44.5150 h4         1 SY7       0.025100
     44 H30         35.1310    13.4380    44.6770 hn         1 SY7       0.440000
     45 H11         34.6570     8.4890    38.9470 h1         1 SY7       0.046367
     46 H9          33.5810     8.8210    40.3190 h1         1 SY7       0.046367
     47 H10         34.4220    10.1610    39.4930 h1         1 SY7       0.046367
     48 H12         33.8710    10.7960    41.6870 ha         1 SY7       0.128000
     49 H14         33.8490    14.9640    45.6710 h1         1 SY7       0.052700
     50 H15         31.6490    16.3360    45.8940 ha         1 SY7       0.129000
     51 H16         29.9990    17.6770    44.6000 h4         1 SY7       0.022100
     52 H25         27.7720    15.0890    49.5360 h1         1 SY7       0.047033
     53 H24         28.6900    15.4990    48.0740 h1         1 SY7       0.047033
     54 H26         28.3250    13.7940    48.4560 h1         1 SY7       0.047033
     55 H23         34.1040    13.8620    50.0720 h4         1 SY7       0.024100
     56 H22         34.4290    13.2520    47.6790 ha         1 SY7       0.136000
     57 H27         30.2380    13.9990    47.0500 ha         1 SY7       0.131000
     58 H21         31.4920    13.0900    45.1990 h1         1 SY7       0.063700
     59 H20         32.6220    14.2880    42.2110 ha         1 SY7       0.153000
     60 H18         29.9910    16.0920    38.9830 h1         1 SY7       0.047367
     61 H19         28.9690    16.2500    40.4270 h1         1 SY7       0.047367
     62 H17         30.2260    17.4660    40.0840 h1         1 SY7       0.047367
     63 H3          32.6100     9.1930    43.4930 ha         1 SY7       0.144000
     64 H28         30.0880    11.2970    46.3000 ha         1 SY7       0.125000
     65 H29         28.1320    10.6140    44.9120 h4         1 SY7       0.021100
     66 H1          29.8690     7.4680    40.3070 h1         1 SY7       0.047700
     67 H2          28.8260     7.4510    41.7450 h1         1 SY7       0.047700
     68 H           29.0030     8.9430    40.7860 h1         1 SY7       0.047700
@<TRIPOS>BOND
     1     1    18 1   
     2     1    19 1   
     3     2    30 1   
     4     2    31 1   
     5     2    39 1   
     6     2    40 1   
     7     3     4 1   
     8     3     8 1   
     9     3    30 1   
    10     3    41 1   
    11     4     6 ar  
    12     4    11 ar  
    13     5     7 ar  
    14     5     9 ar  
    15     6     7 ar  
    16     6    42 1   
    17     7    43 1   
    18     8    12 1   
    19     8    44 1   
    20     9    11 ar  
    21     9    29 1   
    22    10    29 1   
    23    10    45 1   
    24    10    46 1   
    25    10    47 1   
    26    11    48 1   
    27    12    14 1   
    28    12    24 1   
    29    12    49 1   
    30    13    16 ar  
    31    13    26 ar  
    32    14    15 ar  
    33    14    25 ar  
    34    15    16 ar  
    35    15    50 1   
    36    16    51 1   
    37    17    19 ar  
    38    17    20 ar  
    39    18    52 1   
    40    18    53 1   
    41    18    54 1   
    42    19    22 ar  
    43    20    21 ar  
    44    20    55 1   
    45    21    23 ar  
    46    21    56 1   
    47    22    23 ar  
    48    22    57 1   
    49    23    24 1   
    50    24    30 1   
    51    24    58 1   
    52    25    26 ar  
    53    25    59 1   
    54    26    27 1   
    55    27    28 1   
    56    28    60 1   
    57    28    61 1   
    58    28    62 1   
    59    31    32 ar  
    60    31    33 ar  
    61    32    36 ar  
    62    32    63 1   
    63    33    34 ar  
    64    33    64 1   
    65    34    35 ar  
    66    34    65 1   
    67    35    36 ar  
    68    36    37 1   
    69    37    38 1   
    70    38    66 1   
    71    38    67 1   
    72    38    68 1   
@<TRIPOS>SUBSTRUCTURE
     1 SY7         1 TEMP              0 ****  ****    0 ROOT
