@<TRIPOS>MOLECULE
SY7
   68    72     1     0     0
SMALL
abcg2


@<TRIPOS>ATOM
      1 O3          30.0380    15.1610    48.7070 os         1 SY7      -0.451300
      2 C4          32.5080    10.3100    45.3910 c3         1 SY7       0.247100
      3 C5          33.7190    11.5210    43.5880 c5         1 SY7       0.488000
      4 C6          35.1830    11.1280    43.6970 ca         1 SY7      -0.054300
      5 N1          37.8670    10.3800    43.8320 nb         1 SY7      -0.687000
      6 C7          36.0510    11.7550    44.5920 ca         1 SY7      -0.183000
      7 C8          37.3730    11.3480    44.6140 ca         1 SY7       0.370900
      8 N2          33.5010    12.8770    43.0680 n7         1 SY7      -0.879400
      9 C9          37.0360     9.7850    42.9860 ca         1 SY7       0.581300
     10 C10         36.8280     8.0970    41.3020 c3         1 SY7       0.150900
     11 C11         35.6810    10.1260    42.8800 ca         1 SY7      -0.228000
     12 C12         33.1190    13.7490    44.1770 c5         1 SY7       0.214800
     13 N3          30.6490    17.1120    43.1370 nb         1 SY7      -0.748000
     14 C13         32.2910    14.9380    43.7640 ca         1 SY7      -0.023300
     15 C14         32.3570    16.1260    44.5030 ca         1 SY7      -0.196000
     16 C15         31.5230    17.1690    44.1550 ca         1 SY7       0.368900
     17 N4          32.0480    14.2460    49.0920 nb         1 SY7      -0.689000
     18 C24         28.9400    15.4600    47.8400 c3         1 SY7       0.149900
     19 C23         31.0700    14.4400    48.2130 ca         1 SY7       0.580300
     20 C22         33.1150    13.5480    48.6900 ca         1 SY7       0.368900
     21 C21         33.2600    13.0280    47.4140 ca         1 SY7      -0.191000
     22 C25         31.1080    13.9440    46.9070 ca         1 SY7      -0.230000
     23 C20         32.2300    13.2360    46.4990 ca         1 SY7      -0.017300
     24 C19         32.3190    12.7720    45.0690 c5         1 SY7       0.246800
     25 C18         31.3990    14.8690    42.7110 ca         1 SY7      -0.157000
     26 C16         30.6020    15.9870    42.4400 ca         1 SY7       0.572300
     27 O2          29.7440    15.8780    41.4020 os         1 SY7      -0.468300
     28 C17         28.9130    17.0050    41.0960 c3         1 SY7       0.160900
     29 O1          37.6250     8.8190    42.2450 os         1 SY7      -0.450300
     30 N           33.0670    11.5430    44.8930 n3         1 SY7      -0.793600
     31 C3          31.1780     9.8470    44.8230 ca         1 SY7      -0.051300
     32 C2          30.6050    10.3800    43.6850 ca         1 SY7      -0.190000
     33 C26         30.4850     8.8210    45.4840 ca         1 SY7      -0.204000
     34 C27         29.2780     8.3930    44.9760 ca         1 SY7       0.376900
     35 N5          28.7080     8.9140    43.8740 nb         1 SY7      -0.751000
     36 C1          29.3660     9.8810    43.2580 ca         1 SY7       0.581300
     37 O           28.8420    10.4520    42.1520 os         1 SY7      -0.469300
     38 C           27.5750     9.9720    41.6830 c3         1 SY7       0.160900
     39 H4          32.3940    10.3940    46.4750 h1         1 SY7       0.070200
     40 H5          33.2440     9.5170    45.2330 h1         1 SY7       0.070200
     41 H6          33.2460    10.8000    42.9120 h2         1 SY7       0.067700
     42 H7          35.7080    12.5310    45.2600 ha         1 SY7       0.130000
     43 H8          38.0770    11.8130    45.2950 h4         1 SY7       0.025100
     44 H30         34.3110    13.2290    42.5720 hn         1 SY7       0.440000
     45 H11         37.5010     7.3840    40.8330 h1         1 SY7       0.046367
     46 H9          36.0180     7.5630    41.8030 h1         1 SY7       0.046367
     47 H10         36.4160     8.7670    40.5450 h1         1 SY7       0.046367
     48 H12         35.0240     9.6250    42.1840 ha         1 SY7       0.128000
     49 H14         33.9800    14.1090    44.7500 h1         1 SY7       0.052700
     50 H15         33.0410    16.2240    45.3350 ha         1 SY7       0.129000
     51 H16         31.5450    18.1000    44.7110 h4         1 SY7       0.022100
     52 H25         28.2520    16.0570    48.4310 h1         1 SY7       0.047033
     53 H24         29.2740    16.0330    46.9720 h1         1 SY7       0.047033
     54 H26         28.4440    14.5460    47.5080 h1         1 SY7       0.047033
     55 H23         33.8940    13.4020    49.4300 h4         1 SY7       0.024100
     56 H22         34.1440    12.4720    47.1370 ha         1 SY7       0.136000
     57 H27         30.2960    14.1090    46.2160 ha         1 SY7       0.131000
     58 H21         31.2990    12.7130    44.6730 h1         1 SY7       0.063700
     59 H20         31.3110    13.9770    42.1070 ha         1 SY7       0.153000
     60 H18         28.3190    16.7000    40.2380 h1         1 SY7       0.047367
     61 H19         28.2630    17.2480    41.9370 h1         1 SY7       0.047367
     62 H17         29.5180    17.8770    40.8450 h1         1 SY7       0.047367
     63 H3          31.0680    11.1710    43.1140 ha         1 SY7       0.144000
     64 H28         30.8880     8.3730    46.3830 ha         1 SY7       0.125000
     65 H29         28.7230     7.6010    45.4670 h4         1 SY7       0.021100
     66 H1          27.3550    10.5620    40.7970 h1         1 SY7       0.047700
     67 H2          27.6310     8.9140    41.4280 h1         1 SY7       0.047700
     68 H           26.8010    10.1210    42.4370 h1         1 SY7       0.047700
@<TRIPOS>BOND
     1     1    18 1   
     2     1    19 1   
     3     2    30 1   
     4     2    31 1   
     5     2    39 1   
     6     2    40 1   
     7     3     4 1   
     8     3     8 1   
     9     3    30 1   
    10     3    41 1   
    11     4     6 ar  
    12     4    11 ar  
    13     5     7 ar  
    14     5     9 ar  
    15     6     7 ar  
    16     6    42 1   
    17     7    43 1   
    18     8    12 1   
    19     8    44 1   
    20     9    11 ar  
    21     9    29 1   
    22    10    29 1   
    23    10    45 1   
    24    10    46 1   
    25    10    47 1   
    26    11    48 1   
    27    12    14 1   
    28    12    24 1   
    29    12    49 1   
    30    13    16 ar  
    31    13    26 ar  
    32    14    15 ar  
    33    14    25 ar  
    34    15    16 ar  
    35    15    50 1   
    36    16    51 1   
    37    17    19 ar  
    38    17    20 ar  
    39    18    52 1   
    40    18    53 1   
    41    18    54 1   
    42    19    22 ar  
    43    20    21 ar  
    44    20    55 1   
    45    21    23 ar  
    46    21    56 1   
    47    22    23 ar  
    48    22    57 1   
    49    23    24 1   
    50    24    30 1   
    51    24    58 1   
    52    25    26 ar  
    53    25    59 1   
    54    26    27 1   
    55    27    28 1   
    56    28    60 1   
    57    28    61 1   
    58    28    62 1   
    59    31    32 ar  
    60    31    33 ar  
    61    32    36 ar  
    62    32    63 1   
    63    33    34 ar  
    64    33    64 1   
    65    34    35 ar  
    66    34    65 1   
    67    35    36 ar  
    68    36    37 1   
    69    37    38 1   
    70    38    66 1   
    71    38    67 1   
    72    38    68 1   
@<TRIPOS>SUBSTRUCTURE
     1 SY7         1 TEMP              0 ****  ****    0 ROOT
