@<TRIPOS>MOLECULE
SY8
   18    17     1     0     0
SMALL
No Charge or Current Charge


@<TRIPOS>ATOM
      1 N          196.8190   128.4430   135.5290 n8         1 SY8      -1.000200
      2 C          199.0470   123.8810   136.0410 c3         1 SY8      -0.203100
      3 O          198.2650   125.7110   137.3910 o          1 SY8      -0.527100
      4 C1         198.7670   125.3540   136.3330 c          1 SY8       0.571100
      5 C2         199.1080   126.3550   135.2200 c3         1 SY8      -0.187400
      6 C3         197.9220   126.5920   134.2410 c3         1 SY8      -0.064400
      7 C4         196.6210   127.1330   134.8820 c3         1 SY8       0.149800
      8 H1         195.9360   128.7350   135.9670 hn         1 SY8       0.397500
      9 H2         197.4520   128.3200   136.3280 hn         1 SY8       0.397500
     10 H4         198.7270   123.2190   136.8540 hc         1 SY8       0.059700
     11 H5         198.5810   123.6090   135.0870 hc         1 SY8       0.059700
     12 H6         200.1130   123.7600   135.8200 hc         1 SY8       0.059700
     13 H7         199.9270   125.9440   134.6170 hc         1 SY8       0.067700
     14 H8         199.4110   127.3090   135.6650 hc         1 SY8       0.067700
     15 H9         197.6870   125.6490   133.7330 hc         1 SY8       0.048700
     16 H10        198.2450   127.2880   133.4570 hc         1 SY8       0.048700
     17 H11        195.8560   127.2440   134.1020 h1         1 SY8       0.026700
     18 H12        196.2430   126.4210   135.6290 h1         1 SY8       0.026700
@<TRIPOS>BOND
     1     1     7 1   
     2     1     8 1   
     3     1     9 1   
     4     2     4 1   
     5     2    10 1   
     6     2    11 1   
     7     2    12 1   
     8     3     4 2   
     9     4     5 1   
    10     5     6 1   
    11     5    13 1   
    12     5    14 1   
    13     6     7 1   
    14     6    15 1   
    15     6    16 1   
    16     7    17 1   
    17     7    18 1   
@<TRIPOS>SUBSTRUCTURE
     1 SY8         1 TEMP              0 ****  ****    0 ROOT
