@<TRIPOS>MOLECULE
SY8
   18    17     1     0     0
SMALL
bcc


@<TRIPOS>ATOM
      1 N          196.7830   128.2400   135.5400 n8         1 SY8      -0.889800
      2 C          198.7620   124.0420   135.9690 c3         1 SY8      -0.203100
      3 O          198.8190   125.8240   137.5440 o          1 SY8      -0.527100
      4 C1         198.9260   125.4800   136.3870 c          1 SY8       0.571100
      5 C2         199.2080   126.4690   135.2830 c3         1 SY8      -0.187400
      6 C3         198.0680   126.5660   134.2620 c3         1 SY8      -0.064400
      7 C4         196.7230   126.9510   134.8640 c3         1 SY8       0.149800
      8 H1         195.8460   128.5270   135.7910 hn         1 SY8       0.342300
      9 H2         197.2770   128.1450   136.4180 hn         1 SY8       0.342300
     10 H4         198.8310   123.3720   136.8230 hc         1 SY8       0.059700
     11 H5         197.7800   123.9060   135.5100 hc         1 SY8       0.059700
     12 H6         199.5000   123.7600   135.2180 hc         1 SY8       0.059700
     13 H7         200.1160   126.1510   134.7610 hc         1 SY8       0.067700
     14 H8         199.4140   127.4470   135.7210 hc         1 SY8       0.067700
     15 H9         197.9610   125.6160   133.7330 hc         1 SY8       0.048700
     16 H10        198.3510   127.3070   133.5120 hc         1 SY8       0.048700
     17 H11        195.9990   127.0290   134.0510 h1         1 SY8       0.026700
     18 H12        196.3620   126.1350   135.5080 h1         1 SY8       0.026700
@<TRIPOS>BOND
     1     1     7 1   
     2     1     8 1   
     3     1     9 1   
     4     2     4 1   
     5     2    10 1   
     6     2    11 1   
     7     2    12 1   
     8     3     4 2   
     9     4     5 1   
    10     5     6 1   
    11     5    13 1   
    12     5    14 1   
    13     6     7 1   
    14     6    15 1   
    15     6    16 1   
    16     7    17 1   
    17     7    18 1   
@<TRIPOS>SUBSTRUCTURE
     1 SY8         1 TEMP              0 ****  ****    0 ROOT
