@<TRIPOS>MOLECULE
SYA
   18    18     1     0     0
SMALL
bcc


@<TRIPOS>ATOM
      1 C4          -2.6850    13.9670   -34.3360 ca         1 SYA      -0.103000
      2 C5          -2.0390    12.8260   -34.7420 ca         1 SYA       0.047900
      3 C6          -0.9160    12.9020   -35.5460 ca         1 SYA       0.071900
      4 C2          -1.1130    15.2830   -35.5320 ca         1 SYA       0.158900
      5 C3          -2.2370    15.2320   -34.7190 ca         1 SYA      -0.162600
      6 O2          -2.5390    17.5790   -34.4940 o          1 SYA      -0.803800
      7 O1          -4.0300    16.2130   -33.5540 o          1 SYA      -0.803800
      8 F1          -2.4780    11.6190   -34.3610 f          1 SYA      -0.151900
      9 F           -0.2910    11.7890   -35.9300 f          1 SYA      -0.141900
     10 C1          -0.4410    14.1360   -35.9590 ca         1 SYA      -0.009900
     11 O            0.6330    14.2160   -36.7760 os         1 SYA      -0.317900
     12 C            1.8790    14.3620   -36.0980 c3         1 SYA       0.124700
     13 H1          -3.5630    13.8900   -33.7090 ha         1 SYA       0.176000
     14 H3           2.6480    14.4340   -36.8640 h1         1 SYA       0.031033
     15 H4           1.9030    15.2670   -35.4880 h1         1 SYA       0.031033
     16 H5           2.0920    13.5000   -35.4620 h1         1 SYA       0.031033
     17 C7          -3.0060    16.4650   -34.2120 c          1 SYA       0.936200
     18 F2          -0.6060    16.4370   -35.9720 f          1 SYA      -0.114900
@<TRIPOS>BOND
     1     1     2 ar  
     2     1     5 ar  
     3     1    13 1   
     4     2     3 ar  
     5     2     8 1   
     6     3     9 1   
     7     3    10 ar  
     8     4     5 ar  
     9     4    10 ar  
    10     4    18 1   
    11     5    17 1   
    12     6    17 1   
    13     7    17 1   
    14    10    11 1   
    15    11    12 1   
    16    12    14 1   
    17    12    15 1   
    18    12    16 1   
@<TRIPOS>SUBSTRUCTURE
     1 SYA         1 TEMP              0 ****  ****    0 ROOT
