@<TRIPOS>MOLECULE
SYA
   18    18     1     0     0
SMALL
No Charge or Current Charge


@<TRIPOS>ATOM
      1 C4          -2.8670    13.9050   -34.3840 ca         1 SYA      -0.085000
      2 C5          -2.3240    12.6830   -34.8010 ca         1 SYA       0.083000
      3 C6          -1.0520    12.6400   -35.3980 ca         1 SYA       0.107000
      4 C2          -0.8650    15.0630   -35.1660 ca         1 SYA       0.194000
      5 C3          -2.1390    15.1010   -34.5570 ca         1 SYA      -0.162600
      6 O2          -2.0740    17.1190   -33.3640 o          1 SYA      -0.698500
      7 O1          -3.8910    16.6380   -34.4180 o          1 SYA      -0.698500
      8 F1          -3.0340    11.5450   -34.6220 f          1 SYA      -0.187000
      9 F           -0.5440    11.4470   -35.7950 f          1 SYA      -0.177000
     10 C1          -0.3040    13.8210   -35.5940 ca         1 SYA      -0.009900
     11 O            0.9420    13.6800   -36.2020 os         1 SYA      -0.341100
     12 C            1.8510    14.7650   -36.4630 c3         1 SYA       0.147900
     13 H1          -3.8510    13.9240   -33.9210 ha         1 SYA       0.158000
     14 H3           2.7670    14.3850   -36.9340 h1         1 SYA       0.031033
     15 H4           1.4020    15.4970   -37.1470 h1         1 SYA       0.031033
     16 H5           2.1370    15.2700   -35.5320 h1         1 SYA       0.031033
     17 C7          -2.7350    16.4010   -34.1000 c          1 SYA       0.725600
     18 F2          -0.2100    16.2320   -35.3580 f          1 SYA      -0.150000
@<TRIPOS>BOND
     1     1     2 ar  
     2     1     5 ar  
     3     1    13 1   
     4     2     3 ar  
     5     2     8 1   
     6     3     9 1   
     7     3    10 ar  
     8     4     5 ar  
     9     4    10 ar  
    10     4    18 1   
    11     5    17 1   
    12     6    17 1   
    13     7    17 1   
    14    10    11 1   
    15    11    12 1   
    16    12    14 1   
    17    12    15 1   
    18    12    16 1   
@<TRIPOS>SUBSTRUCTURE
     1 SYA         1 TEMP              0 ****  ****    0 ROOT
