@<TRIPOS>MOLECULE
SYB
  140   147     1     0     0
SMALL
No Charge or Current Charge


@<TRIPOS>ATOM
      1 N1           4.8280    -0.4300     0.3640 ns         1 SYB      -0.473900
      2 C1           4.8120    -1.8710     0.6880 c3         1 SYB       0.037700
      3 C2           3.4820    -2.4970     0.1680 c          1 SYB       0.592100
      4 O1           2.8500    -1.9710    -0.7420 o          1 SYB      -0.590100
      5 C3           6.0450    -2.5980     0.0790 c3         1 SYB      -0.087400
      6 C4           7.4060    -2.1820     0.6770 c3         1 SYB      -0.090100
      7 N2           3.0070    -3.6900     0.7560 n          1 SYB      -0.415800
      8 C5           1.8380    -4.4290     0.2040 c5         1 SYB       0.040700
      9 C6           0.3500    -3.9250     0.4060 c          1 SYB       0.601100
     10 O2          -0.6010    -4.5150    -0.0950 o          1 SYB      -0.624100
     11 C7           2.0230    -5.8380     0.8470 c5         1 SYB      -0.081400
     12 C8           2.6510    -5.5110     2.2230 c5         1 SYB      -0.097400
     13 C9           3.6880    -4.4170     1.8560 c5         1 SYB       0.102000
     14 N3           0.1450    -2.6730     1.0700 n          1 SYB      -0.385800
     15 C10         -1.1950    -2.0120     0.9460 c3         1 SYB       0.025700
     16 C11         -1.1020    -0.4650     0.7810 c          1 SYB       0.580100
     17 O3          -1.6140     0.2870     1.5970 o          1 SYB      -0.564100
     18 C12          0.9660    -2.2090     2.2170 c3         1 SYB       0.082300
     19 C13         -2.1710    -2.4470     2.0750 c3         1 SYB      -0.022100
     20 C14         -3.6250    -2.3680     1.6230 ca         1 SYB      -0.138300
     21 C15         -4.1420    -3.3580     0.7690 ca         1 SYB      -0.058000
     22 C16         -5.4830    -3.3070     0.3540 ca         1 SYB      -0.190500
     23 C17         -6.3320    -2.2700     0.7860 ca         1 SYB       0.322000
     24 C18         -5.8020    -1.2720     1.6280 ca         1 SYB      -0.190500
     25 C19         -4.4600    -1.3190     2.0450 ca         1 SYB      -0.058000
     26 N4          -7.6930    -2.2370     0.3880 nh         1 SYB      -0.815400
     27 C20         -8.1520    -2.8920    -0.8600 c3         1 SYB       0.205600
     28 C21         -8.7290    -1.6060     1.2390 c3         1 SYB       0.205600
     29 N5          -0.3490     0.0700    -0.3040 n          1 SYB      -0.386800
     30 C22         -0.0500     1.5410    -0.4810 c6         1 SYB       0.009700
     31 C23          0.5310     2.3910     0.7010 c          1 SYB       0.633100
     32 O4           1.0250     3.4910     0.4990 o          1 SYB      -0.591100
     33 C24         -0.3260    -0.6190    -1.6180 c6         1 SYB       0.093000
     34 C25         -1.4800    -0.0900    -2.5200 c6         1 SYB      -0.190700
     35 C26         -1.5740     1.4550    -2.4960 c          1 SYB       0.583100
     36 C27         -1.3030     2.1500    -1.1520 c6         1 SYB      -0.191400
     37 O5          -1.8060     2.1050    -3.5060 o          1 SYB      -0.508100
     38 N6           0.6340     1.7820     1.9280 ns         1 SYB      -0.490900
     39 C28          1.2390     2.3390     3.1550 c3         1 SYB       0.108000
     40 C29          2.6410     2.9980     2.9610 c          1 SYB       0.611100
     41 O6           3.1160     3.7830     3.7740 o          1 SYB      -0.471000
     42 C30          1.2800     1.2270     4.2030 ca         1 SYB      -0.103300
     43 C31          0.2660     1.1410     5.1780 ca         1 SYB      -0.077500
     44 C32          0.2740     0.0970     6.1190 ca         1 SYB      -0.125500
     45 C33          1.2920    -0.8710     6.0920 ca         1 SYB      -0.105000
     46 C34          2.3030    -0.7950     5.1200 ca         1 SYB      -0.125500
     47 C35          2.2960     0.2470     4.1770 ca         1 SYB      -0.077500
     48 O7           3.3490     2.4710     1.9030 os         1 SYB      -0.453100
     49 C36          4.6760     2.9600     1.6150 c3         1 SYB       0.182300
     50 C37          5.2770     2.0070     0.5540 c3         1 SYB       0.027700
     51 C38          5.4080     0.5670     1.1200 c          1 SYB       0.591100
     52 O8           5.9690     0.3260     2.1810 o          1 SYB      -0.630100
     53 C39          4.5830     4.4210     1.1040 c3         1 SYB      -0.107100
     54 N7           4.4990     2.0470    -0.7140 ns         1 SYB      -0.459900
     55 C40          5.0310     1.9180    -1.9770 c          1 SYB       0.526600
     56 O9           6.2150     1.6390    -2.1490 o          1 SYB      -0.677100
     57 C41          4.0530     2.1260    -3.1280 ca         1 SYB       0.159500
     58 N8           2.7520     2.4410    -2.8380 nb         1 SYB      -0.654000
     59 C42          1.8920     2.6320    -3.8670 ca         1 SYB       0.302900
     60 C43          2.2760     2.5130    -5.2140 ca         1 SYB      -0.081000
     61 C44          3.6100     2.1860    -5.5230 ca         1 SYB      -0.137000
     62 C45          4.5150     1.9910    -4.4680 ca         1 SYB       0.179100
     63 O10          5.8180     1.6760    -4.7500 oh         1 SYB      -0.533100
     64 C81         -2.8540    -0.6870    -2.0830 c3         1 SYB       0.058600
     65 S81         -4.2080    -0.2600    -3.2710 ss         1 SYB      -0.435000
     66 N91         -6.2370     2.4800    -1.1630 n3         1 SYB      -0.673600
     67 C91         -6.2640     3.0750    -2.5360 c6         1 SYB       0.145800
     68 C92         -6.6350     1.9950    -3.6010 c6         1 SYB      -0.106900
     69 C93         -6.8830     0.6270    -2.8990 c6         1 SYB      -0.051700
     70 C94         -8.0200     0.8500    -1.8620 c6         1 SYB      -0.106900
     71 C95         -7.5870     1.9330    -0.8240 c6         1 SYB       0.145800
     72 C96         -5.2270     1.3740    -1.1260 c6         1 SYB       0.147800
     73 C97         -5.5940     0.2170    -2.1220 c6         1 SYB       0.050300
     74 HN1          4.3550    -0.1300    -0.4800 hn         1 SYB       0.352500
     75 H1           4.8250    -1.9820     1.7790 h1         1 SYB       0.079700
     76 H31A         6.0650    -2.4270    -1.0040 hc         1 SYB       0.057700
     77 H32A         5.9360    -3.6800     0.2110 hc         1 SYB       0.057700
     78 H41          7.6370    -1.1370     0.4390 hc         1 SYB       0.039700
     79 H42A         7.4050    -2.3020     1.7670 hc         1 SYB       0.039700
     80 H43A         8.2080    -2.8050     0.2650 hc         1 SYB       0.039700
     81 H5           1.9460    -4.5130    -0.8850 h1         1 SYB       0.094700
     82 H71          1.0900    -6.4070     0.9300 hc         1 SYB       0.066700
     83 H72          2.7110    -6.4460     0.2460 hc         1 SYB       0.066700
     84 H81          1.8970    -5.1430     2.9270 hc         1 SYB       0.059700
     85 H82          3.1210    -6.3840     2.6890 hc         1 SYB       0.059700
     86 H91          3.9130    -3.7710     2.7150 h1         1 SYB       0.050200
     87 H92          4.6220    -4.8740     1.5050 h1         1 SYB       0.050200
     88 H2          -1.6510    -2.3570     0.0130 h1         1 SYB       0.102700
     89 H121         1.4000    -3.0550     2.7570 h1         1 SYB       0.051367
     90 H122         1.7590    -1.5390     1.8660 h1         1 SYB       0.051367
     91 H123         0.3490    -1.6490     2.9310 h1         1 SYB       0.051367
     92 H131        -1.9510    -3.4850     2.3500 hc         1 SYB       0.057700
     93 H132        -2.0010    -1.8610     2.9860 hc         1 SYB       0.057700
     94 H15         -3.5070    -4.1760     0.4330 ha         1 SYB       0.116000
     95 H16         -5.8590    -4.0960    -0.2890 ha         1 SYB       0.114000
     96 H18         -6.4260    -0.4510     1.9650 ha         1 SYB       0.114000
     97 H19         -4.0730    -0.5400     2.6990 ha         1 SYB       0.116000
     98 H201        -8.2910    -3.9690    -0.7010 h1         1 SYB       0.036200
     99 H202        -9.1060    -2.4650    -1.1980 h1         1 SYB       0.036200
    100 H203        -7.4190    -2.7420    -1.6640 h1         1 SYB       0.036200
    101 H211        -8.5210    -1.7940     2.3000 h1         1 SYB       0.036200
    102 H212        -8.7580    -0.5210     1.0710 h1         1 SYB       0.036200
    103 H213        -9.7230    -2.0190     1.0170 h1         1 SYB       0.036200
    104 H22          0.7670     1.6120    -1.2110 h1         1 SYB       0.081700
    105 H241        -0.3730    -1.7120    -1.5210 h1         1 SYB       0.082200
    106 H242         0.6370    -0.4080    -2.1070 h1         1 SYB       0.082200
    107 H25         -1.3260    -0.4060    -3.5600 hc         1 SYB       0.092700
    108 H271        -2.1500     1.9430    -0.4870 hc         1 SYB       0.091700
    109 H272        -1.2240     3.2350    -1.3030 hc         1 SYB       0.091700
    110 HN6          0.1360     0.9050     2.0140 hn         1 SYB       0.335500
    111 H28          0.5870     3.1460     3.5110 h1         1 SYB       0.110700
    112 H31         -0.5350     1.8780     5.2040 ha         1 SYB       0.132000
    113 H32         -0.5120     0.0360     6.8690 ha         1 SYB       0.111500
    114 H33          1.2950    -1.6790     6.8200 ha         1 SYB       0.110000
    115 H34          3.0890    -1.5460     5.0940 ha         1 SYB       0.111500
    116 H35          3.0790     0.2810     3.4220 ha         1 SYB       0.132000
    117 H36          5.3110     2.9300     2.5130 h1         1 SYB       0.082700
    118 H37          6.3000     2.3390     0.3380 h1         1 SYB       0.086700
    119 H391         3.8190     4.5210     0.3240 hc         1 SYB       0.054033
    120 H392         4.3360     5.1140     1.9160 hc         1 SYB       0.054033
    121 H393         5.5440     4.7400     0.6840 hc         1 SYB       0.054033
    122 HN7          3.5170     2.3130    -0.6820 hn         1 SYB       0.370500
    123 H42          0.8680     2.8900    -3.6040 h4         1 SYB       0.036100
    124 H43          1.5460     2.6750    -6.0030 ha         1 SYB       0.137000
    125 H44          3.9340     2.0890    -6.5560 ha         1 SYB       0.140000
    126 H10          6.2800     1.5890    -3.8720 ho         1 SYB       0.519000
    127 H811        -2.7770    -1.7820    -2.0390 h1         1 SYB       0.069200
    128 H812        -3.1140    -0.3310    -1.0790 h1         1 SYB       0.069200
    129 H911        -6.9930     3.8980    -2.5820 h1         1 SYB       0.055200
    130 H912        -5.2830     3.5070    -2.7850 h1         1 SYB       0.055200
    131 H921        -5.8330     1.9100    -4.3460 hc         1 SYB       0.048700
    132 H922        -7.5330     2.3080    -4.1510 hc         1 SYB       0.048700
    133 H93         -7.1660    -0.1470    -3.6260 hc         1 SYB       0.064700
    134 H941        -8.2600    -0.0870    -1.3480 hc         1 SYB       0.048700
    135 H942        -8.9410     1.1670    -2.3700 hc         1 SYB       0.048700
    136 H951        -7.5750     1.4860     0.1820 h1         1 SYB       0.055200
    137 H952        -8.3360     2.7390    -0.8040 h1         1 SYB       0.055200
    138 H961        -5.1380     0.9620    -0.1100 h1         1 SYB       0.066700
    139 H962        -4.2410     1.7770    -1.3910 h1         1 SYB       0.066700
    140 H97         -5.8230    -0.6800    -1.5310 h1         1 SYB       0.072700
@<TRIPOS>BOND
     1     1     2 1   
     2     1    51 1   
     3     1    74 1   
     4     2     3 1   
     5     2     5 1   
     6     2    75 1   
     7     3     4 2   
     8     3     7 1   
     9     5     6 1   
    10     5    76 1   
    11     5    77 1   
    12     6    78 1   
    13     6    79 1   
    14     6    80 1   
    15     7     8 1   
    16     7    13 1   
    17     8     9 1   
    18     8    11 1   
    19     8    81 1   
    20     9    10 2   
    21     9    14 1   
    22    11    12 1   
    23    11    82 1   
    24    11    83 1   
    25    12    13 1   
    26    12    84 1   
    27    12    85 1   
    28    13    86 1   
    29    13    87 1   
    30    14    15 1   
    31    14    18 1   
    32    15    16 1   
    33    15    19 1   
    34    15    88 1   
    35    16    17 2   
    36    16    29 1   
    37    18    89 1   
    38    18    90 1   
    39    18    91 1   
    40    19    20 1   
    41    19    92 1   
    42    19    93 1   
    43    20    21 ar  
    44    20    25 ar  
    45    21    22 ar  
    46    21    94 1   
    47    22    23 ar  
    48    22    95 1   
    49    23    24 ar  
    50    23    26 1   
    51    24    25 ar  
    52    24    96 1   
    53    25    97 1   
    54    26    27 1   
    55    26    28 1   
    56    27    98 1   
    57    27    99 1   
    58    27   100 1   
    59    28   101 1   
    60    28   102 1   
    61    28   103 1   
    62    29    30 1   
    63    29    33 1   
    64    30    31 1   
    65    30    36 1   
    66    30   104 1   
    67    31    32 2   
    68    31    38 1   
    69    33    34 1   
    70    33   105 1   
    71    33   106 1   
    72    34    35 1   
    73    34    64 1   
    74    34   107 1   
    75    35    36 1   
    76    35    37 2   
    77    36   108 1   
    78    36   109 1   
    79    38    39 1   
    80    38   110 1   
    81    39    40 1   
    82    39    42 1   
    83    39   111 1   
    84    40    41 2   
    85    40    48 1   
    86    42    43 ar  
    87    42    47 ar  
    88    43    44 ar  
    89    43   112 1   
    90    44    45 ar  
    91    44   113 1   
    92    45    46 ar  
    93    45   114 1   
    94    46    47 ar  
    95    46   115 1   
    96    47   116 1   
    97    48    49 1   
    98    49    50 1   
    99    49    53 1   
   100    49   117 1   
   101    50    51 1   
   102    50    54 1   
   103    50   118 1   
   104    51    52 2   
   105    53   119 1   
   106    53   120 1   
   107    53   121 1   
   108    54    55 1   
   109    54   122 1   
   110    55    56 2   
   111    55    57 1   
   112    57    58 ar  
   113    57    62 ar  
   114    58    59 ar  
   115    59    60 ar  
   116    59   123 1   
   117    60    61 ar  
   118    60   124 1   
   119    61    62 ar  
   120    61   125 1   
   121    62    63 1   
   122    63   126 1   
   123    64    65 1   
   124    64   127 1   
   125    64   128 1   
   126    65    73 1   
   127    66    67 1   
   128    66    71 1   
   129    66    72 1   
   130    67    68 1   
   131    67   129 1   
   132    67   130 1   
   133    68    69 1   
   134    68   131 1   
   135    68   132 1   
   136    69    70 1   
   137    69    73 1   
   138    69   133 1   
   139    70    71 1   
   140    70   134 1   
   141    70   135 1   
   142    71   136 1   
   143    71   137 1   
   144    72    73 1   
   145    72   138 1   
   146    72   139 1   
   147    73   140 1   
@<TRIPOS>SUBSTRUCTURE
     1 SYB         1 TEMP              0 ****  ****    0 ROOT
