@<TRIPOS>MOLECULE
SYB
  140   147     1     0     0
SMALL
abcg2


@<TRIPOS>ATOM
      1 N1           5.2650    -0.6150     0.2370 ns         1 SYB      -0.473900
      2 C1           5.0330    -2.0070     0.5270 c3         1 SYB       0.037700
      3 C2           3.6430    -2.4420     0.0620 c          1 SYB       0.592100
      4 O1           3.1050    -1.9160    -0.8980 o          1 SYB      -0.590100
      5 C3           6.0830    -2.8660    -0.1880 c3         1 SYB      -0.087400
      6 C4           7.5010    -2.5880     0.2880 c3         1 SYB      -0.090100
      7 N2           3.0860    -3.4780     0.7210 n          1 SYB      -0.415800
      8 C5           1.9530    -4.1810     0.1520 c5         1 SYB       0.040700
      9 C6           0.5730    -3.5200     0.1430 c          1 SYB       0.601100
     10 O2          -0.2260    -3.9950    -0.6570 o          1 SYB      -0.624100
     11 C7           1.9510    -5.5170     0.9100 c5         1 SYB      -0.081400
     12 C8           2.5700    -5.1790     2.2600 c5         1 SYB      -0.097400
     13 C9           3.6200    -4.1280     1.9210 c5         1 SYB       0.102000
     14 N3           0.2370    -2.4820     0.9430 n          1 SYB      -0.385800
     15 C10         -1.1020    -1.9260     0.7990 c3         1 SYB       0.025700
     16 C11         -1.0150    -0.4020     0.6670 c          1 SYB       0.580100
     17 O3          -1.5730     0.3380     1.4510 o          1 SYB      -0.564100
     18 C12          1.0250    -1.9740     2.0570 c3         1 SYB       0.082300
     19 C13         -2.0270    -2.3560     1.9420 c3         1 SYB      -0.022100
     20 C14         -3.4890    -2.1440     1.6580 ca         1 SYB      -0.138300
     21 C15         -4.1500    -2.9140     0.7050 ca         1 SYB      -0.058000
     22 C16         -5.5110    -2.7990     0.4780 ca         1 SYB      -0.190500
     23 C17         -6.2930    -1.8890     1.2130 ca         1 SYB       0.322000
     24 C18         -5.6230    -1.1090     2.1730 ca         1 SYB      -0.190500
     25 C19         -4.2580    -1.2350     2.3740 ca         1 SYB      -0.058000
     26 N4          -7.6460    -1.7640     0.9970 nh         1 SYB      -0.815400
     27 C20         -8.3320    -2.7890     0.2450 c3         1 SYB       0.205600
     28 C21         -8.4300    -0.9840     1.9250 c3         1 SYB       0.205600
     29 N5          -0.2040     0.0900    -0.3230 n          1 SYB      -0.386800
     30 C22         -0.0410     1.5300    -0.4340 c6         1 SYB       0.009700
     31 C23          0.1520     2.2350     0.9080 c          1 SYB       0.633100
     32 O4          -0.4170     3.2760     1.1770 o          1 SYB      -0.591100
     33 C24         -0.0400    -0.5580    -1.6150 c6         1 SYB       0.093000
     34 C25         -1.1000    -0.0510    -2.6150 c6         1 SYB      -0.190700
     35 C26         -1.1060     1.4670    -2.6570 c          1 SYB       0.583100
     36 C27         -1.1330     2.1490    -1.3070 c6         1 SYB      -0.191400
     37 O5          -1.0650     2.0830    -3.6940 o          1 SYB      -0.508100
     38 N6           1.0960     1.6670     1.6780 ns         1 SYB      -0.490900
     39 C28          1.4660     2.1460     2.9850 c3         1 SYB       0.108000
     40 C29          2.9360     2.5490     3.0440 c          1 SYB       0.611100
     41 O6           3.5580     2.6430     4.0660 o          1 SYB      -0.471000
     42 C30          1.0570     1.1430     4.0470 ca         1 SYB      -0.103300
     43 C31         -0.2800     1.1390     4.4370 ca         1 SYB      -0.077500
     44 C32         -0.7640     0.1730     5.3060 ca         1 SYB      -0.125500
     45 C33          0.0880    -0.8050     5.8000 ca         1 SYB      -0.105000
     46 C34          1.4220    -0.8070     5.4180 ca         1 SYB      -0.125500
     47 C35          1.9060     0.1580     4.5430 ca         1 SYB      -0.077500
     48 O7           3.4050     2.8510     1.8430 os         1 SYB      -0.453100
     49 C36          4.8140     2.8150     1.5800 c3         1 SYB       0.182300
     50 C37          5.0080     1.7800     0.4710 c3         1 SYB       0.027700
     51 C38          4.6860     0.3560     0.9480 c          1 SYB       0.591100
     52 O8           3.9640     0.1300     1.9100 o          1 SYB      -0.630100
     53 C39          5.2860     4.1980     1.1860 c3         1 SYB      -0.107100
     54 N7           4.1890     2.1170    -0.6720 ns         1 SYB      -0.459900
     55 C40          4.5090     1.8140    -1.9300 c          1 SYB       0.526600
     56 O9           5.5100     1.1550    -2.2380 o          1 SYB      -0.677100
     57 C41          3.5880     2.3380    -2.9670 ca         1 SYB       0.159500
     58 N8           2.5480     3.0600    -2.5490 nb         1 SYB      -0.654000
     59 C42          1.7200     3.5760    -3.4290 ca         1 SYB       0.302900
     60 C43          1.8880     3.3840    -4.8020 ca         1 SYB      -0.081000
     61 C44          2.9520     2.6370    -5.2530 ca         1 SYB      -0.137000
     62 C45          3.8420     2.0900    -4.3210 ca         1 SYB       0.179100
     63 O10          4.8740     1.3730    -4.7560 oh         1 SYB      -0.533100
     64 C81         -2.4940    -0.5610    -2.2380 c3         1 SYB       0.058600
     65 S81         -3.7480     0.0850    -3.3780 ss         1 SYB      -0.435000
     66 N91         -6.2910     1.8900    -1.2480 n3         1 SYB      -0.673600
     67 C91         -6.1280     2.5940    -2.5170 c6         1 SYB       0.145800
     68 C92         -6.4110     1.6610    -3.7150 c6         1 SYB      -0.106900
     69 C93         -6.4770     0.2260    -3.1840 c6         1 SYB      -0.051700
     70 C94         -7.6960     0.1190    -2.2630 c6         1 SYB      -0.106900
     71 C95         -7.6010     1.2500    -1.2140 c6         1 SYB       0.145800
     72 C96         -5.2560     0.8790    -1.1190 c6         1 SYB       0.147800
     73 C97         -5.2370    -0.0820    -2.3360 c6         1 SYB       0.050300
     74 HN1          5.7550    -0.3680    -0.6120 hn         1 SYB       0.352500
     75 H1           5.1410    -2.1490     1.6050 h1         1 SYB       0.079700
     76 H31A         5.9990    -2.7060    -1.2660 hc         1 SYB       0.057700
     77 H32A         5.8460    -3.9180    -0.0180 hc         1 SYB       0.057700
     78 H41          7.8100    -1.5620     0.0920 hc         1 SYB       0.039700
     79 H42A         7.5950    -2.7660     1.3610 hc         1 SYB       0.039700
     80 H43A         8.2070    -3.2450    -0.2200 hc         1 SYB       0.039700
     81 H5           2.1420    -4.3580    -0.9080 h1         1 SYB       0.094700
     82 H71          0.9600    -5.9600     0.9890 hc         1 SYB       0.066700
     83 H72          2.5850    -6.2240     0.3720 hc         1 SYB       0.066700
     84 H81          1.8180    -4.7750     2.9380 hc         1 SYB       0.059700
     85 H82          3.0130    -6.0450     2.7490 hc         1 SYB       0.059700
     86 H91          3.7630    -3.4080     2.7280 h1         1 SYB       0.050200
     87 H92          4.5860    -4.5970     1.7160 h1         1 SYB       0.050200
     88 H2          -1.5180    -2.3360    -0.1210 h1         1 SYB       0.102700
     89 H121         1.3520    -2.7650     2.7270 h1         1 SYB       0.051367
     90 H122         1.8950    -1.4070     1.7370 h1         1 SYB       0.051367
     91 H123         0.4050    -1.3150     2.6600 h1         1 SYB       0.051367
     92 H131        -1.8460    -3.4230     2.0970 hc         1 SYB       0.057700
     93 H132        -1.7480    -1.8570     2.8710 hc         1 SYB       0.057700
     94 H15         -3.5940    -3.6480     0.1290 ha         1 SYB       0.116000
     95 H16         -5.9600    -3.4400    -0.2670 ha         1 SYB       0.114000
     96 H18         -6.1630    -0.3960     2.7790 ha         1 SYB       0.114000
     97 H19         -3.7860    -0.6150     3.1270 ha         1 SYB       0.116000
     98 H201        -8.2750    -3.7780     0.7140 h1         1 SYB       0.036200
     99 H202        -9.3820    -2.5200     0.1530 h1         1 SYB       0.036200
    100 H203        -7.9380    -2.8750    -0.7680 h1         1 SYB       0.036200
    101 H211        -8.4180    -1.3850     2.9460 h1         1 SYB       0.036200
    102 H212        -8.0790     0.0490     1.9690 h1         1 SYB       0.036200
    103 H213        -9.4630    -0.9560     1.5870 h1         1 SYB       0.036200
    104 H22          0.9140     1.6790    -0.9580 h1         1 SYB       0.081700
    105 H241        -0.1090    -1.6380    -1.5360 h1         1 SYB       0.082200
    106 H242         0.9630    -0.3420    -1.9850 h1         1 SYB       0.082200
    107 H25         -0.8380    -0.4230    -3.6080 hc         1 SYB       0.092700
    108 H271        -2.1140     2.0080    -0.8410 hc         1 SYB       0.091700
    109 H272        -0.9800     3.2190    -1.4350 hc         1 SYB       0.091700
    110 HN6          1.5200     0.8020     1.3760 hn         1 SYB       0.335500
    111 H28          0.9040     3.0710     3.1570 h1         1 SYB       0.110700
    112 H31         -0.9520     1.8910     4.0430 ha         1 SYB       0.132000
    113 H32         -1.8080     0.1840     5.5940 ha         1 SYB       0.111500
    114 H33         -0.2850    -1.5620     6.4790 ha         1 SYB       0.110000
    115 H34          2.0930    -1.5680     5.7960 ha         1 SYB       0.111500
    116 H35          2.9420     0.1150     4.2420 ha         1 SYB       0.132000
    117 H36          5.3580     2.4810     2.4660 h1         1 SYB       0.082700
    118 H37          6.0590     1.8180     0.1720 h1         1 SYB       0.086700
    119 H391         4.7430     4.5850     0.3230 hc         1 SYB       0.054033
    120 H392         5.1540     4.8920     2.0150 hc         1 SYB       0.054033
    121 H393         6.3460     4.1710     0.9360 hc         1 SYB       0.054033
    122 HN7          3.3370     2.6450    -0.5360 hn         1 SYB       0.370500
    123 H42          0.8930     4.1610    -3.0490 h4         1 SYB       0.036100
    124 H43          1.1860     3.8200    -5.4990 ha         1 SYB       0.137000
    125 H44          3.1120     2.4690    -6.3100 ha         1 SYB       0.140000
    126 H10          5.3910     1.0880    -3.9700 ho         1 SYB       0.519000
    127 H811        -2.5020    -1.6530    -2.2540 h1         1 SYB       0.069200
    128 H812        -2.7640    -0.2470    -1.2290 h1         1 SYB       0.069200
    129 H911        -6.7970     3.4570    -2.5270 h1         1 SYB       0.055200
    130 H912        -5.1060     2.9780    -2.5590 h1         1 SYB       0.055200
    131 H921        -5.6460     1.7730    -4.4860 hc         1 SYB       0.048700
    132 H922        -7.3650     1.9060    -4.1880 hc         1 SYB       0.048700
    133 H93         -6.5550    -0.4900    -4.0040 hc         1 SYB       0.064700
    134 H941        -7.7140    -0.8600    -1.7790 hc         1 SYB       0.048700
    135 H942        -8.6130     0.1980    -2.8510 hc         1 SYB       0.048700
    136 H951        -7.7770     0.8620    -0.2090 h1         1 SYB       0.055200
    137 H952        -8.3570     2.0180    -1.3930 h1         1 SYB       0.055200
    138 H961        -5.4330     0.3090    -0.2030 h1         1 SYB       0.066700
    139 H962        -4.2940     1.3850    -0.9980 h1         1 SYB       0.066700
    140 H97         -5.2770    -1.1200    -1.9970 h1         1 SYB       0.072700
@<TRIPOS>BOND
     1     1     2 1   
     2     1    51 1   
     3     1    74 1   
     4     2     3 1   
     5     2     5 1   
     6     2    75 1   
     7     3     4 2   
     8     3     7 1   
     9     5     6 1   
    10     5    76 1   
    11     5    77 1   
    12     6    78 1   
    13     6    79 1   
    14     6    80 1   
    15     7     8 1   
    16     7    13 1   
    17     8     9 1   
    18     8    11 1   
    19     8    81 1   
    20     9    10 2   
    21     9    14 1   
    22    11    12 1   
    23    11    82 1   
    24    11    83 1   
    25    12    13 1   
    26    12    84 1   
    27    12    85 1   
    28    13    86 1   
    29    13    87 1   
    30    14    15 1   
    31    14    18 1   
    32    15    16 1   
    33    15    19 1   
    34    15    88 1   
    35    16    17 2   
    36    16    29 1   
    37    18    89 1   
    38    18    90 1   
    39    18    91 1   
    40    19    20 1   
    41    19    92 1   
    42    19    93 1   
    43    20    21 ar  
    44    20    25 ar  
    45    21    22 ar  
    46    21    94 1   
    47    22    23 ar  
    48    22    95 1   
    49    23    24 ar  
    50    23    26 1   
    51    24    25 ar  
    52    24    96 1   
    53    25    97 1   
    54    26    27 1   
    55    26    28 1   
    56    27    98 1   
    57    27    99 1   
    58    27   100 1   
    59    28   101 1   
    60    28   102 1   
    61    28   103 1   
    62    29    30 1   
    63    29    33 1   
    64    30    31 1   
    65    30    36 1   
    66    30   104 1   
    67    31    32 2   
    68    31    38 1   
    69    33    34 1   
    70    33   105 1   
    71    33   106 1   
    72    34    35 1   
    73    34    64 1   
    74    34   107 1   
    75    35    36 1   
    76    35    37 2   
    77    36   108 1   
    78    36   109 1   
    79    38    39 1   
    80    38   110 1   
    81    39    40 1   
    82    39    42 1   
    83    39   111 1   
    84    40    41 2   
    85    40    48 1   
    86    42    43 ar  
    87    42    47 ar  
    88    43    44 ar  
    89    43   112 1   
    90    44    45 ar  
    91    44   113 1   
    92    45    46 ar  
    93    45   114 1   
    94    46    47 ar  
    95    46   115 1   
    96    47   116 1   
    97    48    49 1   
    98    49    50 1   
    99    49    53 1   
   100    49   117 1   
   101    50    51 1   
   102    50    54 1   
   103    50   118 1   
   104    51    52 2   
   105    53   119 1   
   106    53   120 1   
   107    53   121 1   
   108    54    55 1   
   109    54   122 1   
   110    55    56 2   
   111    55    57 1   
   112    57    58 ar  
   113    57    62 ar  
   114    58    59 ar  
   115    59    60 ar  
   116    59   123 1   
   117    60    61 ar  
   118    60   124 1   
   119    61    62 ar  
   120    61   125 1   
   121    62    63 1   
   122    63   126 1   
   123    64    65 1   
   124    64   127 1   
   125    64   128 1   
   126    65    73 1   
   127    66    67 1   
   128    66    71 1   
   129    66    72 1   
   130    67    68 1   
   131    67   129 1   
   132    67   130 1   
   133    68    69 1   
   134    68   131 1   
   135    68   132 1   
   136    69    70 1   
   137    69    73 1   
   138    69   133 1   
   139    70    71 1   
   140    70   134 1   
   141    70   135 1   
   142    71   136 1   
   143    71   137 1   
   144    72    73 1   
   145    72   138 1   
   146    72   139 1   
   147    73   140 1   
@<TRIPOS>SUBSTRUCTURE
     1 SYB         1 TEMP              0 ****  ****    0 ROOT
