@<TRIPOS>MOLECULE
SYF
  117   122     1     0     0
SMALL
abcg2


@<TRIPOS>ATOM
      1 C8          26.5420    -8.7590    41.3190 c3         1 SYF       0.154300
      2 C9          27.9680    -7.7820    43.1270 c          1 SYF       0.612100
      3 C10         26.7290    -7.5210    43.9740 c5         1 SYF       0.034700
      4 C11         26.4150    -6.0220    44.0460 c5         1 SYF      -0.081400
      5 C12         25.7920    -5.8630    45.4220 c5         1 SYF       0.154300
      6 C13         26.6690    -6.7790    46.2690 c5         1 SYF       0.072000
      7 N1          27.7790    -8.2680    41.8870 ns         1 SYF      -0.500900
      8 C6          24.1970    -7.8550    41.2230 ca         1 SYF      -0.097500
      9 C3          22.6950    -4.6950    39.8450 cc         1 SYF      -0.186000
     10 C5          23.2680    -6.8920    40.8630 ca         1 SYF      -0.096000
     11 C4          23.6710    -5.7190    40.2250 ca         1 SYF      -0.005000
     12 C2          20.8840    -3.0930    39.7610 cc         1 SYF       0.410300
     13 C15         27.4130    -9.5680    47.1240 c3         1 SYF       0.054700
     14 C17         24.7120   -12.1930    47.4650 c3         1 SYF      -0.203400
     15 C18         25.0290   -12.9240    48.7700 c3         1 SYF       0.176600
     16 C19         24.7860   -11.1610    50.3560 c3         1 SYF       0.147600
     17 C22         24.9330    -8.1470    53.9770 c3         1 SYF       0.165600
     18 C26         26.3930    -3.4710    52.7960 ca         1 SYF      -0.128500
     19 C29         27.3390    -0.2470    51.7280 cc         1 SYF       0.389800
     20 C30         27.9040     0.9410    51.0290 c5         1 SYF      -0.102700
     21 C31         27.4930     2.0860    51.9780 c5         1 SYF      -0.098400
     22 C32         26.2770     1.5650    52.7690 c5         1 SYF       0.072600
     23 C33         26.9880    -4.3850    51.9220 ca         1 SYF      -0.046000
     24 C34         26.8490    -5.7520    52.0750 ca         1 SYF      -0.129300
     25 C36         29.4530    -5.7660    50.0780 c          1 SYF       0.599100
     26 C37         29.9950    -5.0590    48.8610 c3         1 SYF      -0.182100
     27 O7          30.1450    -5.9810    51.0620 o          1 SYF      -0.594100
     28 N6          28.1580    -6.1350    50.0080 ns         1 SYF      -0.514900
     29 C35         27.4570    -6.7440    51.1080 c3         1 SYF       0.156300
     30 C27         26.5630    -2.0330    52.5850 cd         1 SYF       0.298500
     31 N5          27.4330    -1.5460    51.6370 nd         1 SYF      -0.659000
     32 N4          26.4670     0.1320    52.6770 na         1 SYF      -0.172500
     33 C28         25.9430    -0.9910    53.2390 cc         1 SYF      -0.199000
     34 C25         25.6390    -3.9770    53.8510 ca         1 SYF      -0.075000
     35 C24         25.4850    -5.3450    54.0290 ca         1 SYF      -0.192000
     36 C23         26.0920    -6.2350    53.1510 ca         1 SYF       0.142100
     37 O6          26.0120    -7.5770    53.2610 os         1 SYF      -0.344100
     38 C21         24.8720    -9.6150    53.6380 c3         1 SYF       0.162600
     39 O5          24.7040    -9.7560    52.2520 os         1 SYF      -0.451000
     40 C20         24.4890   -11.0830    51.8420 c3         1 SYF       0.152600
     41 O4          24.3660   -12.4250    49.9020 os         1 SYF      -0.460000
     42 O3          24.6810    -9.8280    47.0120 o          1 SYF      -0.608100
     43 N3          26.6790   -10.7830    47.3800 ns         1 SYF      -0.492900
     44 C44         28.9120    -9.7250    47.4990 c3         1 SYF      -0.046000
     45 C47         28.9950   -10.0040    49.0050 c3         1 SYF      -0.090767
     46 C46         29.6130   -10.8520    46.7360 c3         1 SYF      -0.090767
     47 C45         29.6400    -8.4110    47.2120 c3         1 SYF      -0.090767
     48 N2          26.9610    -7.8820    45.3650 n          1 SYF      -0.381800
     49 O1          24.4630    -6.3210    45.3470 oh         1 SYF      -0.647000
     50 O           29.0780    -7.4930    43.5460 o          1 SYF      -0.609100
     51 C7          25.5500    -7.6820    40.9520 ca         1 SYF      -0.110300
     52 C48         25.9550    -6.5080    40.3240 ca         1 SYF      -0.097500
     53 C49         25.0320    -5.5380    39.9690 ca         1 SYF      -0.096000
     54 C1          22.5780    -3.9900    38.6760 cd         1 SYF       0.300300
     55 C           23.4320    -4.1410    37.4620 c3         1 SYF      -0.121400
     56 S           21.4550    -4.1970    40.9380 ss         1 SYF      -0.021400
     57 N           21.5490    -3.0880    38.6530 nd         1 SYF      -0.638000
     58 H1          26.0740    -9.4840    41.9880 h1         1 SYF       0.061700
     59 H2          26.8170    -9.3130    40.4210 h1         1 SYF       0.061700
     60 H3          25.8600    -8.0690    43.6040 h1         1 SYF       0.087700
     61 H4          27.3320    -5.4320    43.9990 hc         1 SYF       0.073700
     62 H5          25.7600    -5.6960    43.2390 hc         1 SYF       0.073700
     63 H6          25.8460    -4.8290    45.7830 h1         1 SYF       0.047700
     64 H7          27.5810    -6.2550    46.5680 h1         1 SYF       0.054200
     65 H8          26.1580    -7.1110    47.1730 h1         1 SYF       0.054200
     66 H9          28.6140    -8.3800    41.3330 hn         1 SYF       0.316500
     67 H10         23.8600    -8.7570    41.7230 ha         1 SYF       0.119500
     68 H11         22.2180    -7.0620    41.0730 ha         1 SYF       0.120000
     69 H12         20.0280    -2.4610    39.9560 h5         1 SYF       0.052100
     70 H13         27.0200    -8.7910    47.7840 h1         1 SYF       0.067700
     71 H14         23.6320   -12.0980    47.3480 hc         1 SYF       0.079700
     72 H15         25.0640   -12.8310    46.6480 hc         1 SYF       0.079700
     73 H16         24.6970   -13.9570    48.6630 h1         1 SYF       0.045200
     74 H17         26.1140   -12.9570    48.9410 h1         1 SYF       0.045200
     75 H18         25.8620   -11.0130    50.1930 h1         1 SYF       0.046200
     76 H19         24.2590   -10.3550    49.8310 h1         1 SYF       0.046200
     77 H20         23.9910    -7.6560    53.7060 h1         1 SYF       0.042700
     78 H21         25.0670    -8.0390    55.0590 h1         1 SYF       0.042700
     79 H22         28.9830     0.8810    50.8900 hc         1 SYF       0.071200
     80 H23         27.4540     1.0550    50.0390 hc         1 SYF       0.071200
     81 H24         28.3090     2.2950    52.6710 hc         1 SYF       0.060200
     82 H25         27.2630     3.0080    51.4500 hc         1 SYF       0.060200
     83 H26         25.3280     1.8490    52.3110 h1         1 SYF       0.060700
     84 H27         26.2720     1.8990    53.8050 h1         1 SYF       0.060700
     85 H28         27.5590    -4.0030    51.0860 ha         1 SYF       0.133000
     86 H29         30.9070    -5.5540    48.5270 hc         1 SYF       0.059700
     87 H30         29.2960    -5.0200    48.0280 hc         1 SYF       0.059700
     88 H31         30.2610    -4.0370    49.1320 hc         1 SYF       0.059700
     89 H32         27.6230    -5.8810    49.1940 hn         1 SYF       0.305500
     90 H33         26.6740    -7.3800    50.6910 h1         1 SYF       0.070700
     91 H34         28.1430    -7.4120    51.6310 h1         1 SYF       0.070700
     92 H35         25.2090    -0.9640    54.0270 h4         1 SYF       0.159000
     93 H36         25.1630    -3.3090    54.5570 ha         1 SYF       0.106000
     94 H37         24.8990    -5.7000    54.8670 ha         1 SYF       0.113000
     95 H38         24.0360   -10.0520    54.1990 h1         1 SYF       0.033200
     96 H39         25.7850   -10.1250    53.9750 h1         1 SYF       0.033200
     97 H40         23.4540   -11.3940    52.0400 h1         1 SYF       0.033700
     98 H41         25.1450   -11.7800    52.3820 h1         1 SYF       0.033700
     99 H42         27.1890   -11.6470    47.4700 hn         1 SYF       0.322500
    100 H43         28.5280   -10.9500    49.2820 hc         1 SYF       0.041589
    101 H44         30.0390   -10.0510    49.3190 hc         1 SYF       0.041589
    102 H45         28.5110    -9.2110    49.5790 hc         1 SYF       0.041589
    103 H46         29.1740   -11.8340    46.9190 hc         1 SYF       0.041589
    104 H47         29.6180   -10.6810    45.6610 hc         1 SYF       0.041589
    105 H48         30.6520   -10.9120    47.0660 hc         1 SYF       0.041589
    106 H49         30.6680    -8.4740    47.5700 hc         1 SYF       0.041589
    107 H50         29.6760    -8.1770    46.1480 hc         1 SYF       0.041589
    108 H51         29.1630    -7.5760    47.7270 hc         1 SYF       0.041589
    109 H52         24.0860    -6.3250    46.2330 ho         1 SYF       0.451000
    110 H53         27.0050    -6.3380    40.1170 ha         1 SYF       0.119500
    111 H54         25.3740    -4.6220    39.5050 ha         1 SYF       0.120000
    112 H55         22.8200    -4.0760    36.5630 hc         1 SYF       0.051700
    113 H56         24.1830    -3.3510    37.4010 hc         1 SYF       0.051700
    114 H57         23.9560    -5.0950    37.4510 hc         1 SYF       0.051700
    115 C14         27.1990    -9.1700    45.6610 c          1 SYF       0.606100
    116 C16         25.3390   -10.8270    47.2730 c          1 SYF       0.601100
    117 O2          27.2560   -10.0150    44.7750 o          1 SYF      -0.619100
@<TRIPOS>BOND
     1     1     7 1   
     2     1    51 1   
     3     1    58 1   
     4     1    59 1   
     5     2     3 1   
     6     2     7 1   
     7     2    50 2   
     8     3     4 1   
     9     3    48 1   
    10     3    60 1   
    11     4     5 1   
    12     4    61 1   
    13     4    62 1   
    14     5     6 1   
    15     5    49 1   
    16     5    63 1   
    17     6    48 1   
    18     6    64 1   
    19     6    65 1   
    20     7    66 1   
    21     8    10 ar  
    22     8    51 ar  
    23     8    67 1   
    24     9    11 1   
    25     9    54 2   
    26     9    56 1   
    27    10    11 ar  
    28    10    68 1   
    29    11    53 ar  
    30    12    56 1   
    31    12    57 2   
    32    12    69 1   
    33    13    43 1   
    34    13    44 1   
    35    13    70 1   
    36    13   115 1   
    37    14    15 1   
    38    14    71 1   
    39    14    72 1   
    40    14   116 1   
    41    15    41 1   
    42    15    73 1   
    43    15    74 1   
    44    16    40 1   
    45    16    41 1   
    46    16    75 1   
    47    16    76 1   
    48    17    37 1   
    49    17    38 1   
    50    17    77 1   
    51    17    78 1   
    52    18    23 ar  
    53    18    30 1   
    54    18    34 ar  
    55    19    20 1   
    56    19    31 2   
    57    19    32 1   
    58    20    21 1   
    59    20    79 1   
    60    20    80 1   
    61    21    22 1   
    62    21    81 1   
    63    21    82 1   
    64    22    32 1   
    65    22    83 1   
    66    22    84 1   
    67    23    24 ar  
    68    23    85 1   
    69    24    29 1   
    70    24    36 ar  
    71    25    26 1   
    72    25    27 2   
    73    25    28 1   
    74    26    86 1   
    75    26    87 1   
    76    26    88 1   
    77    28    29 1   
    78    28    89 1   
    79    29    90 1   
    80    29    91 1   
    81    30    31 1   
    82    30    33 2   
    83    32    33 1   
    84    33    92 1   
    85    34    35 ar  
    86    34    93 1   
    87    35    36 ar  
    88    35    94 1   
    89    36    37 1   
    90    38    39 1   
    91    38    95 1   
    92    38    96 1   
    93    39    40 1   
    94    40    97 1   
    95    40    98 1   
    96    42   116 2   
    97    43    99 1   
    98    43   116 1   
    99    44    45 1   
   100    44    46 1   
   101    44    47 1   
   102    45   100 1   
   103    45   101 1   
   104    45   102 1   
   105    46   103 1   
   106    46   104 1   
   107    46   105 1   
   108    47   106 1   
   109    47   107 1   
   110    47   108 1   
   111    48   115 1   
   112    49   109 1   
   113    51    52 ar  
   114    52    53 ar  
   115    52   110 1   
   116    53   111 1   
   117    54    55 1   
   118    54    57 1   
   119    55   112 1   
   120    55   113 1   
   121    55   114 1   
   122   115   117 2   
@<TRIPOS>SUBSTRUCTURE
     1 SYF         1 TEMP              0 ****  ****    0 ROOT
