@<TRIPOS>MOLECULE
SYF
  117   122     1     0     0
SMALL
No Charge or Current Charge


@<TRIPOS>ATOM
      1 C8          26.2860    -9.6360    39.7250 c3         1 SYF       0.154300
      2 C9          27.6440    -8.7110    41.6840 c          1 SYF       0.612100
      3 C10         26.3090    -8.1870    42.3270 c5         1 SYF       0.034700
      4 C11         26.1750    -6.6620    42.0370 c5         1 SYF      -0.081400
      5 C12         25.1420    -6.2140    43.0990 c5         1 SYF       0.154300
      6 C13         25.6650    -6.9540    44.3690 c5         1 SYF       0.072000
      7 N1          27.5120    -9.1750    40.3870 ns         1 SYF      -0.500900
      8 C6          24.1160    -8.3230    39.5160 ca         1 SYF      -0.097500
      9 C3          23.1670    -5.2130    37.6000 cc         1 SYF      -0.186000
     10 C5          23.3690    -7.2490    39.0040 ca         1 SYF      -0.096000
     11 C4          23.9530    -6.3340    38.1100 ca         1 SYF      -0.005000
     12 C2          21.7510    -3.3440    37.1050 cc         1 SYF       0.410300
     13 C15         26.6810    -9.2650    46.1200 c3         1 SYF       0.054700
     14 C17         25.0340   -11.9780    48.3420 c3         1 SYF      -0.203400
     15 C18         26.0490   -12.5090    49.3820 c3         1 SYF       0.176600
     16 C19         25.4600   -10.9570    51.1940 c3         1 SYF       0.147600
     17 C22         25.0550    -7.9500    54.9500 c3         1 SYF       0.165600
     18 C26         26.7430    -3.0770    54.9560 ca         1 SYF      -0.128500
     19 C29         27.8240     0.3080    54.9280 cc         1 SYF       0.389800
     20 C30         28.5250     1.6130    54.7270 c5         1 SYF      -0.102700
     21 C31         27.7210     2.6300    55.6550 c5         1 SYF      -0.098400
     22 C32         26.4600     1.8010    56.1270 c5         1 SYF       0.072600
     23 C33         27.6530    -3.8470    54.2010 ca         1 SYF      -0.046000
     24 C34         27.4750    -5.2360    54.0370 ca         1 SYF      -0.129300
     25 C36         29.2240    -6.0990    50.8020 c          1 SYF       0.599100
     26 C37         28.9150    -5.5810    49.4040 c3         1 SYF      -0.182100
     27 O7          30.1640    -6.8420    51.0380 o          1 SYF      -0.594100
     28 N6          28.3670    -5.6610    51.7810 ns         1 SYF      -0.514900
     29 C35         28.4830    -6.0110    53.1960 c3         1 SYF       0.156300
     30 C27         26.9390    -1.6200    55.1210 cd         1 SYF       0.298500
     31 N5          28.0130    -0.9400    54.5510 nd         1 SYF      -0.659000
     32 N4          26.7330     0.4640    55.6750 na         1 SYF      -0.172500
     33 C28         26.1240    -0.7550    55.8310 cc         1 SYF      -0.199000
     34 C25         25.6400    -3.7250    55.5490 ca         1 SYF      -0.075000
     35 C24         25.4540    -5.1080    55.3940 ca         1 SYF      -0.192000
     36 C23         26.3690    -5.8740    54.6400 ca         1 SYF       0.142100
     37 O6          26.2170    -7.2370    54.4770 os         1 SYF      -0.344100
     38 C21         25.2210    -9.4500    54.6130 c3         1 SYF       0.162600
     39 O5          25.2070    -9.6140    53.1810 os         1 SYF      -0.451000
     40 C20         25.3420   -10.9740    52.7310 c3         1 SYF       0.152600
     41 O4          25.5680   -12.3200    50.7300 os         1 SYF      -0.460000
     42 O3          25.0010    -9.5610    48.4520 o          1 SYF      -0.608100
     43 N3          26.1580   -10.5090    46.7390 ns         1 SYF      -0.492900
     44 C44         28.1700    -8.9730    46.5630 c3         1 SYF      -0.046000
     45 C47         28.2860    -8.9650    48.1150 c3         1 SYF      -0.090767
     46 C46         29.1360   -10.0570    46.0070 c3         1 SYF      -0.090767
     47 C45         28.6440    -7.5840    46.0550 c3         1 SYF      -0.090767
     48 N2          26.3060    -8.1740    43.8160 n          1 SYF      -0.381800
     49 O1          23.8160    -6.6190    42.7430 oh         1 SYF      -0.647000
     50 O           28.7520    -8.6740    42.2010 o          1 SYF      -0.609100
     51 C7          25.4660    -8.4880    39.1510 ca         1 SYF      -0.110300
     52 C48         26.0530    -7.5710    38.2580 ca         1 SYF      -0.097500
     53 C49         25.3040    -6.4990    37.7460 ca         1 SYF      -0.096000
     54 C1          23.0310    -4.9530    36.2510 cd         1 SYF       0.300300
     55 C           23.6360    -5.7200    35.1050 c3         1 SYF      -0.121400
     56 S           22.2290    -4.1340    38.5860 ss         1 SYF      -0.021400
     57 N           22.2200    -3.8620    35.9710 nd         1 SYF      -0.638000
     58 H1          25.6880   -10.2310    40.4280 h1         1 SYF       0.061700
     59 H2          26.5730   -10.3060    38.9030 h1         1 SYF       0.061700
     60 H3          25.4450    -8.7540    41.9650 h1         1 SYF       0.087700
     61 H4          27.1290    -6.1420    42.1840 hc         1 SYF       0.073700
     62 H5          25.8460    -6.4460    41.0150 hc         1 SYF       0.073700
     63 H6          25.1690    -5.1240    43.2390 h1         1 SYF       0.047700
     64 H7          26.3980    -6.3330    44.8970 h1         1 SYF       0.054200
     65 H8          24.8500    -7.1910    45.0650 h1         1 SYF       0.054200
     66 H9          28.3880    -9.4230    39.9450 hn         1 SYF       0.316500
     67 H10         23.6440    -9.0190    40.2070 ha         1 SYF       0.119500
     68 H11         22.3300    -7.1290    39.3020 ha         1 SYF       0.120000
     69 H12         21.0950    -2.4850    37.1590 h5         1 SYF       0.052100
     70 H13         26.0600    -8.4340    46.4740 h1         1 SYF       0.067700
     71 H14         24.0240   -11.9940    48.7670 hc         1 SYF       0.079700
     72 H15         25.0920   -12.6550    47.4830 hc         1 SYF       0.079700
     73 H16         26.1850   -13.5840    49.2060 h1         1 SYF       0.045200
     74 H17         27.0300   -12.0360    49.2390 h1         1 SYF       0.045200
     75 H18         26.3470   -10.3730    50.9120 h1         1 SYF       0.046200
     76 H19         24.5680   -10.4740    50.7770 h1         1 SYF       0.046200
     77 H20         24.1410    -7.5680    54.4780 h1         1 SYF       0.042700
     78 H21         24.9560    -7.8450    56.0380 h1         1 SYF       0.042700
     79 H22         29.5810     1.5460    55.0100 hc         1 SYF       0.071200
     80 H23         28.4850     1.9100    53.6730 hc         1 SYF       0.071200
     81 H24         28.3270     2.9330    56.5160 hc         1 SYF       0.060200
     82 H25         27.4360     3.5450    55.1230 hc         1 SYF       0.060200
     83 H26         25.5370     2.1710    55.6620 h1         1 SYF       0.060700
     84 H27         26.3340     1.8290    57.2170 h1         1 SYF       0.060700
     85 H28         28.5100    -3.3680    53.7310 ha         1 SYF       0.133000
     86 H29         29.6130    -5.9600    48.6490 hc         1 SYF       0.059700
     87 H30         27.8750    -5.8180    49.1540 hc         1 SYF       0.059700
     88 H31         28.9030    -4.4850    49.4260 hc         1 SYF       0.059700
     89 H32         27.6100    -5.0520    51.4960 hn         1 SYF       0.305500
     90 H33         28.3440    -7.0950    53.3070 h1         1 SYF       0.070700
     91 H34         29.4990    -5.7720    53.5390 h1         1 SYF       0.070700
     92 H35         25.2150    -0.9090    56.3980 h4         1 SYF       0.159000
     93 H36         24.9190    -3.1630    56.1370 ha         1 SYF       0.106000
     94 H37         24.5930    -5.5670    55.8710 ha         1 SYF       0.113000
     95 H38         24.3960   -10.0100    55.0710 h1         1 SYF       0.033200
     96 H39         26.1630    -9.8170    55.0410 h1         1 SYF       0.033200
     97 H40         24.4680   -11.5690    53.0280 h1         1 SYF       0.033700
     98 H41         26.2420   -11.4370    53.1570 h1         1 SYF       0.033700
     99 H42         26.3890   -11.3900    46.2950 hn         1 SYF       0.322500
    100 H43         28.0980    -9.9580    48.5400 hc         1 SYF       0.041589
    101 H44         29.2920    -8.6640    48.4330 hc         1 SYF       0.041589
    102 H45         27.5690    -8.2640    48.5580 hc         1 SYF       0.041589
    103 H46         28.8450   -11.0600    46.3430 hc         1 SYF       0.041589
    104 H47         29.1500   -10.0550    44.9110 hc         1 SYF       0.041589
    105 H48         30.1620    -9.8770    46.3500 hc         1 SYF       0.041589
    106 H49         29.6660    -7.3740    46.3920 hc         1 SYF       0.041589
    107 H50         28.6490    -7.5330    44.9610 hc         1 SYF       0.041589
    108 H51         27.9990    -6.7850    46.4410 hc         1 SYF       0.041589
    109 H52         23.2060    -6.2260    43.4050 ho         1 SYF       0.451000
    110 H53         27.0960    -7.6820    37.9690 ha         1 SYF       0.119500
    111 H54         25.7790    -5.7880    37.0750 ha         1 SYF       0.120000
    112 H55         23.0550    -5.5870    34.1850 hc         1 SYF       0.051700
    113 H56         24.6590    -5.3810    34.9050 hc         1 SYF       0.051700
    114 H57         23.6690    -6.7940    35.3190 hc         1 SYF       0.051700
    115 C14         26.4810    -9.3590    44.5660 c          1 SYF       0.606100
    116 C16         25.3880   -10.5660    47.8780 c          1 SYF       0.601100
    117 O2          26.5090   -10.4430    43.9890 o          1 SYF      -0.619100
@<TRIPOS>BOND
     1     1     7 1   
     2     1    51 1   
     3     1    58 1   
     4     1    59 1   
     5     2     3 1   
     6     2     7 1   
     7     2    50 2   
     8     3     4 1   
     9     3    48 1   
    10     3    60 1   
    11     4     5 1   
    12     4    61 1   
    13     4    62 1   
    14     5     6 1   
    15     5    49 1   
    16     5    63 1   
    17     6    48 1   
    18     6    64 1   
    19     6    65 1   
    20     7    66 1   
    21     8    10 ar  
    22     8    51 ar  
    23     8    67 1   
    24     9    11 1   
    25     9    54 2   
    26     9    56 1   
    27    10    11 ar  
    28    10    68 1   
    29    11    53 ar  
    30    12    56 1   
    31    12    57 2   
    32    12    69 1   
    33    13    43 1   
    34    13    44 1   
    35    13    70 1   
    36    13   115 1   
    37    14    15 1   
    38    14    71 1   
    39    14    72 1   
    40    14   116 1   
    41    15    41 1   
    42    15    73 1   
    43    15    74 1   
    44    16    40 1   
    45    16    41 1   
    46    16    75 1   
    47    16    76 1   
    48    17    37 1   
    49    17    38 1   
    50    17    77 1   
    51    17    78 1   
    52    18    23 ar  
    53    18    30 1   
    54    18    34 ar  
    55    19    20 1   
    56    19    31 2   
    57    19    32 1   
    58    20    21 1   
    59    20    79 1   
    60    20    80 1   
    61    21    22 1   
    62    21    81 1   
    63    21    82 1   
    64    22    32 1   
    65    22    83 1   
    66    22    84 1   
    67    23    24 ar  
    68    23    85 1   
    69    24    29 1   
    70    24    36 ar  
    71    25    26 1   
    72    25    27 2   
    73    25    28 1   
    74    26    86 1   
    75    26    87 1   
    76    26    88 1   
    77    28    29 1   
    78    28    89 1   
    79    29    90 1   
    80    29    91 1   
    81    30    31 1   
    82    30    33 2   
    83    32    33 1   
    84    33    92 1   
    85    34    35 ar  
    86    34    93 1   
    87    35    36 ar  
    88    35    94 1   
    89    36    37 1   
    90    38    39 1   
    91    38    95 1   
    92    38    96 1   
    93    39    40 1   
    94    40    97 1   
    95    40    98 1   
    96    42   116 2   
    97    43    99 1   
    98    43   116 1   
    99    44    45 1   
   100    44    46 1   
   101    44    47 1   
   102    45   100 1   
   103    45   101 1   
   104    45   102 1   
   105    46   103 1   
   106    46   104 1   
   107    46   105 1   
   108    47   106 1   
   109    47   107 1   
   110    47   108 1   
   111    48   115 1   
   112    49   109 1   
   113    51    52 ar  
   114    52    53 ar  
   115    52   110 1   
   116    53   111 1   
   117    54    55 1   
   118    54    57 1   
   119    55   112 1   
   120    55   113 1   
   121    55   114 1   
   122   115   117 2   
@<TRIPOS>SUBSTRUCTURE
     1 SYF         1 TEMP              0 ****  ****    0 ROOT
