@<TRIPOS>MOLECULE
SYG
   24    24     1     0     0
SMALL
No Charge or Current Charge


@<TRIPOS>ATOM
      1 C4          14.5880    25.6910   -22.1670 ca         1 SYG      -0.065000
      2 C5          14.9630    24.5240   -22.8570 ca         1 SYG      -0.162000
      3 C6          14.0920    23.9450   -23.7960 ca         1 SYG      -0.067000
      4 C7          12.8460    24.5410   -24.0490 ca         1 SYG      -0.167000
      5 C8          12.4760    25.7070   -23.3620 ca         1 SYG       0.181100
      6 O           11.2940    26.3110   -23.6320 oh         1 SYG      -0.575100
      7 C3          13.3360    26.2940   -22.4110 ca         1 SYG      -0.197300
      8 C2          12.9240    27.5320   -21.6090 c3         1 SYG       0.217800
      9 N           12.2280    28.5030   -22.4720 n8         1 SYG      -1.031200
     10 C1          12.0330    27.1850   -20.3920 c3         1 SYG      -0.078400
     11 C           12.7100    26.2590   -19.3590 c3         1 SYG      -0.087100
     12 H1          15.2670    26.1200   -21.4340 ha         1 SYG       0.103000
     13 H2          15.9290    24.0650   -22.6590 ha         1 SYG       0.113000
     14 H3          14.3840    23.0420   -24.3280 ha         1 SYG       0.111000
     15 H4          12.1720    24.1050   -24.7820 ha         1 SYG       0.125000
     16 H5          11.4130    27.2090   -23.1990 ho         1 SYG       0.515000
     17 H6          13.8310    28.0270   -21.2320 h1         1 SYG       0.032700
     18 H7          11.9710    29.3170   -21.8980 hn         1 SYG       0.415000
     19 H8          12.9200    28.9040   -23.1200 hn         1 SYG       0.415000
     20 H10         11.7440    28.1130   -19.8840 hc         1 SYG       0.045200
     21 H11         11.1060    26.7120   -20.7370 hc         1 SYG       0.045200
     22 H12         12.0520    26.1090   -18.4940 hc         1 SYG       0.036700
     23 H13         12.9250    25.2760   -19.7940 hc         1 SYG       0.036700
     24 H14         13.6500    26.6960   -19.0030 hc         1 SYG       0.036700
@<TRIPOS>BOND
     1     1     2 ar  
     2     1     7 ar  
     3     1    12 1   
     4     2     3 ar  
     5     2    13 1   
     6     3     4 ar  
     7     3    14 1   
     8     4     5 ar  
     9     4    15 1   
    10     5     6 1   
    11     5     7 ar  
    12     6    16 1   
    13     7     8 1   
    14     8     9 1   
    15     8    10 1   
    16     8    17 1   
    17     9    18 1   
    18     9    19 1   
    19    10    11 1   
    20    10    20 1   
    21    10    21 1   
    22    11    22 1   
    23    11    23 1   
    24    11    24 1   
@<TRIPOS>SUBSTRUCTURE
     1 SYG         1 TEMP              0 ****  ****    0 ROOT
