@<TRIPOS>MOLECULE
SYG
   24    24     1     0     0
SMALL
bcc


@<TRIPOS>ATOM
      1 C4          14.5900    25.6850   -22.1690 ca         1 SYG      -0.083000
      2 C5          14.9500    24.5200   -22.8340 ca         1 SYG      -0.180000
      3 C6          14.0670    23.9680   -23.7520 ca         1 SYG      -0.085000
      4 C7          12.8510    24.5830   -24.0120 ca         1 SYG      -0.185000
      5 C8          12.4920    25.7520   -23.3420 ca         1 SYG       0.181100
      6 O           11.3090    26.3240   -23.6220 oh         1 SYG      -0.536100
      7 C3          13.3680    26.3080   -22.3920 ca         1 SYG      -0.197300
      8 C2          12.9680    27.5270   -21.5940 c3         1 SYG       0.217800
      9 N           12.2570    28.4660   -22.4690 n8         1 SYG      -0.920800
     10 C1          12.0570    27.1650   -20.4150 c3         1 SYG      -0.078400
     11 C           12.7220    26.2590   -19.3920 c3         1 SYG      -0.087100
     12 H1          15.2740    26.1240   -21.4510 ha         1 SYG       0.121000
     13 H2          15.9060    24.0530   -22.6390 ha         1 SYG       0.131000
     14 H3          14.3270    23.0600   -24.2800 ha         1 SYG       0.129000
     15 H4          12.1690    24.1620   -24.7410 ha         1 SYG       0.143000
     16 H5          11.3670    27.2590   -23.2700 ho         1 SYG       0.476000
     17 H6          13.8780    27.9810   -21.1790 h1         1 SYG       0.032700
     18 H7          11.8290    29.2060   -21.9250 hn         1 SYG       0.359800
     19 H8          12.9020    28.9120   -23.1110 hn         1 SYG       0.359800
     20 H10         11.7530    28.0970   -19.9270 hc         1 SYG       0.045200
     21 H11         11.1400    26.7000   -20.7880 hc         1 SYG       0.045200
     22 H12         12.0670    26.1000   -18.5350 hc         1 SYG       0.036700
     23 H13         12.9610    25.2810   -19.8110 hc         1 SYG       0.036700
     24 H14         13.6510    26.6960   -19.0210 hc         1 SYG       0.036700
@<TRIPOS>BOND
     1     1     2 ar  
     2     1     7 ar  
     3     1    12 1   
     4     2     3 ar  
     5     2    13 1   
     6     3     4 ar  
     7     3    14 1   
     8     4     5 ar  
     9     4    15 1   
    10     5     6 1   
    11     5     7 ar  
    12     6    16 1   
    13     7     8 1   
    14     8     9 1   
    15     8    10 1   
    16     8    17 1   
    17     9    18 1   
    18     9    19 1   
    19    10    11 1   
    20    10    20 1   
    21    10    21 1   
    22    11    22 1   
    23    11    23 1   
    24    11    24 1   
@<TRIPOS>SUBSTRUCTURE
     1 SYG         1 TEMP              0 ****  ****    0 ROOT
