@<TRIPOS>MOLECULE
SYH
   35    37     1     0     0
SMALL
bcc


@<TRIPOS>ATOM
      1 C4          12.1480     1.4850    22.8390 c6         1 SYH       0.097000
      2 C14         12.8040    -1.2630    22.1470 c6         1 SYH      -0.066200
      3 C5          10.3800     0.9990    21.2420 c          1 SYH       0.651100
      4 C6           9.4840    -0.0590    20.5920 c3         1 SYH      -0.026700
      5 C11          6.6940     1.5010    20.9500 ca         1 SYH      -0.127000
      6 C7           7.1380     1.6910    18.5480 ca         1 SYH       0.016400
      7 C8           5.9780     2.4460    18.3430 ca         1 SYH      -0.045000
      8 C9           5.2030     2.7140    19.4480 ca         1 SYH      -0.157000
      9 C10          5.5580     2.2470    20.7320 ca         1 SYH      -0.094000
     10 C12          7.4760     1.2350    19.8230 ca         1 SYH      -0.064200
     11 C13         11.4100    -0.8150    22.5900 c6         1 SYH       0.097000
     12 N1          11.1890     0.5760    22.2310 n          1 SYH      -0.473800
     13 N2           8.6230     0.5460    19.6190 na         1 SYH       0.103900
     14 C3          13.5700     1.1210    22.4070 c6         1 SYH      -0.066200
     15 N3           8.9700     0.6010    18.3370 nc         1 SYH      -0.156400
     16 C1          14.8840    -0.7430    23.4100 c2         1 SYH      -0.210000
     17 C2          13.8450    -0.3280    22.6920 c2         1 SYH      -0.121400
     18 N4           8.1010     1.2640    17.6790 nd         1 SYH      -0.215400
     19 O1          10.3170     2.1560    20.8650 o          1 SYH      -0.571100
     20 H1          11.9070     2.5080    22.5650 h1         1 SYH       0.058450
     21 H2          12.0570     1.3990    23.9250 h1         1 SYH       0.058450
     22 H3          12.9810    -2.2870    22.4780 hc         1 SYH       0.058450
     23 H4          12.8350    -1.2600    21.0520 hc         1 SYH       0.058450
     24 H5           8.8660    -0.5660    21.3350 h1         1 SYH       0.084700
     25 H6          10.0780    -0.8220    20.0880 h1         1 SYH       0.084700
     26 H8           5.7070     2.8040    17.3590 ha         1 SYH       0.151000
     27 H9           4.2980     3.2970    19.3370 ha         1 SYH       0.135000
     28 H10          4.9150     2.4860    21.5690 ha         1 SYH       0.132000
     29 H11         11.3200    -0.9050    23.6760 h1         1 SYH       0.058450
     30 H12         10.6490    -1.4610    22.1600 h1         1 SYH       0.058450
     31 H13         13.6680     1.3150    21.3340 hc         1 SYH       0.058450
     32 H14         14.2840     1.7650    22.9230 hc         1 SYH       0.058450
     33 H15         15.6110    -0.0470    23.8110 ha         1 SYH       0.116500
     34 H16         15.0460    -1.7940    23.6170 ha         1 SYH       0.116500
     35 H7           6.9620     1.1470    21.9370 ha         1 SYH       0.140000
@<TRIPOS>BOND
     1     1    12 1   
     2     1    14 1   
     3     1    20 1   
     4     1    21 1   
     5     2    11 1   
     6     2    17 1   
     7     2    22 1   
     8     2    23 1   
     9     3     4 1   
    10     3    12 1   
    11     3    19 2   
    12     4    13 1   
    13     4    24 1   
    14     4    25 1   
    15     5     9 ar  
    16     5    10 ar  
    17     5    35 1   
    18     6     7 ar  
    19     6    10 ar  
    20     6    18 1   
    21     7     8 ar  
    22     7    26 1   
    23     8     9 ar  
    24     8    27 1   
    25     9    28 1   
    26    10    13 1   
    27    11    12 1   
    28    11    29 1   
    29    11    30 1   
    30    13    15 1   
    31    14    17 1   
    32    14    31 1   
    33    14    32 1   
    34    15    18 2   
    35    16    17 2   
    36    16    33 1   
    37    16    34 1   
@<TRIPOS>SUBSTRUCTURE
     1 SYH         1 TEMP              0 ****  ****    0 ROOT
