@<TRIPOS>MOLECULE
SYH
   35    37     1     0     0
SMALL
No Charge or Current Charge


@<TRIPOS>ATOM
      1 C4          12.1670     1.4870    22.8930 c6         1 SYH       0.097000
      2 C14         12.8770    -1.2960    22.1980 c6         1 SYH      -0.066200
      3 C5          10.4530     1.0360    21.0690 c          1 SYH       0.584100
      4 C6           9.5100     0.0300    20.3860 c3         1 SYH       0.002600
      5 C11          6.8380     1.6430    20.8880 ca         1 SYH      -0.109000
      6 C7           6.9130     1.6180    18.4640 ca         1 SYH       0.016400
      7 C8           5.7040     2.3230    18.3710 ca         1 SYH      -0.027000
      8 C9           5.0560     2.6920    19.5710 ca         1 SYH      -0.139000
      9 C10          5.6210     2.3530    20.8260 ca         1 SYH      -0.076000
     10 C12          7.4450     1.2970    19.6710 ca         1 SYH      -0.064200
     11 C13         11.4300    -0.8490    22.5160 c6         1 SYH       0.097000
     12 N1          11.2330     0.5860    22.1630 n          1 SYH      -0.406800
     13 N2           8.6030     0.6300    19.3960 na         1 SYH       0.074600
     14 C3          13.6380     1.1160    22.5890 c6         1 SYH      -0.066200
     15 N3           8.7640     0.5360    18.0220 nc         1 SYH      -0.156400
     16 C1          14.9020    -0.8060    23.6170 c2         1 SYH      -0.310000
     17 C2          13.8930    -0.3640    22.8510 c2         1 SYH      -0.121400
     18 N4           7.7300     1.1500    17.4430 nd         1 SYH      -0.215400
     19 O1          10.5130     2.2050    20.7060 o          1 SYH      -0.571100
     20 H1          11.9900     2.5400    22.6330 h1         1 SYH       0.058450
     21 H2          11.9840     1.3880    23.9720 h1         1 SYH       0.058450
     22 H3          13.0280    -2.3330    22.5280 hc         1 SYH       0.058450
     23 H4          13.0270    -1.2890    21.1100 hc         1 SYH       0.058450
     24 H5           8.9100    -0.4590    21.1610 h1         1 SYH       0.084700
     25 H6          10.1260    -0.7310    19.8940 h1         1 SYH       0.084700
     26 H8           5.2810     2.5790    17.4020 ha         1 SYH       0.133000
     27 H9           4.1170     3.2390    19.5310 ha         1 SYH       0.117000
     28 H10          5.1150     2.6420    21.7440 ha         1 SYH       0.114000
     29 H11         11.2450    -0.9750    23.5930 h1         1 SYH       0.058450
     30 H12         10.7240    -1.5070    21.9940 h1         1 SYH       0.058450
     31 H13         13.8560     1.3400    21.5360 hc         1 SYH       0.058450
     32 H14         14.3120     1.7430    23.1880 hc         1 SYH       0.058450
     33 H15         15.6090    -0.1220    24.0860 ha         1 SYH       0.166500
     34 H16         15.0590    -1.8690    23.8030 ha         1 SYH       0.166500
     35 H7           7.2850     1.3790    21.8440 ha         1 SYH       0.122000
@<TRIPOS>BOND
     1     1    12 1   
     2     1    14 1   
     3     1    20 1   
     4     1    21 1   
     5     2    11 1   
     6     2    17 1   
     7     2    22 1   
     8     2    23 1   
     9     3     4 1   
    10     3    12 1   
    11     3    19 2   
    12     4    13 1   
    13     4    24 1   
    14     4    25 1   
    15     5     9 ar  
    16     5    10 ar  
    17     5    35 1   
    18     6     7 ar  
    19     6    10 ar  
    20     6    18 1   
    21     7     8 ar  
    22     7    26 1   
    23     8     9 ar  
    24     8    27 1   
    25     9    28 1   
    26    10    13 1   
    27    11    12 1   
    28    11    29 1   
    29    11    30 1   
    30    13    15 1   
    31    14    17 1   
    32    14    31 1   
    33    14    32 1   
    34    15    18 2   
    35    16    17 2   
    36    16    33 1   
    37    16    34 1   
@<TRIPOS>SUBSTRUCTURE
     1 SYH         1 TEMP              0 ****  ****    0 ROOT
