@<TRIPOS>MOLECULE
SYJ
   27    28     1     0     0
SMALL
No Charge or Current Charge


@<TRIPOS>ATOM
      1 C4          46.7580    15.4580    43.3730 ca         1 SYJ       0.268000
      2 C5          47.2100    15.5240    44.7010 ca         1 SYJ      -0.179000
      3 C6          48.9990    14.7540    40.5660 c3         1 SYJ       0.183500
      4 C7          48.8070    16.2540    40.5680 cc         1 SYJ       0.063300
      5 C8          48.3990    17.1150    39.5840 cd         1 SYJ      -0.158000
      6 C9          48.4220    18.4110    40.1370 cd         1 SYJ      -0.194000
      7 C10         48.8500    18.2930    41.4310 cc         1 SYJ       0.150900
      8 O1          45.7370    12.7980    40.7600 o          1 SYJ      -0.532500
      9 S           46.3560    14.1150    40.9310 sy         1 SYJ       1.157600
     10 O           45.7180    15.3430    40.4560 o          1 SYJ      -0.532500
     11 C3          46.9040    14.2650    42.6350 ca         1 SYJ      -0.314500
     12 C2          47.4940    13.1400    43.2490 ca         1 SYJ       0.014000
     13 C1          47.9440    13.2130    44.5780 ca         1 SYJ      -0.150000
     14 F           46.1830    16.5590    42.8440 f          1 SYJ      -0.149000
     15 C           47.8050    14.4050    45.3070 ca         1 SYJ      -0.031000
     16 N           47.8030    14.0070    40.0990 n7         1 SYJ      -0.886300
     17 O2          49.1030    16.9670    41.7100 os         1 SYJ      -0.213000
     18 H1          47.0960    16.4470    45.2610 ha         1 SYJ       0.136000
     19 H2          49.3010    14.4330    41.5720 h1         1 SYJ       0.076200
     20 H3          49.8510    14.5330    39.9090 h1         1 SYJ       0.076200
     21 H4          48.1110    16.8450    38.5730 ha         1 SYJ       0.138000
     22 H5          48.1530    19.3360    39.6370 ha         1 SYJ       0.143000
     23 H6          49.0150    19.0190    42.2150 h4         1 SYJ       0.056100
     24 H7          47.6140    12.2090    42.6960 ha         1 SYJ       0.142000
     25 H8          48.4030    12.3440    45.0440 ha         1 SYJ       0.125000
     26 H9          48.1540    14.4610    46.3360 ha         1 SYJ       0.121000
     27 H10         47.5190    14.3580    39.1860 hn         1 SYJ       0.491000
@<TRIPOS>BOND
     1     1     2 ar  
     2     1    11 ar  
     3     1    14 1   
     4     2    15 ar  
     5     2    18 1   
     6     3     4 1   
     7     3    16 1   
     8     3    19 1   
     9     3    20 1   
    10     4     5 2   
    11     4    17 1   
    12     5     6 1   
    13     5    21 1   
    14     6     7 2   
    15     6    22 1   
    16     7    17 1   
    17     7    23 1   
    18     8     9 2   
    19     9    10 2   
    20     9    11 1   
    21     9    16 1   
    22    11    12 ar  
    23    12    13 ar  
    24    12    24 1   
    25    13    15 ar  
    26    13    25 1   
    27    15    26 1   
    28    16    27 1   
@<TRIPOS>SUBSTRUCTURE
     1 SYJ         1 TEMP              0 ****  ****    0 ROOT
