@<TRIPOS>MOLECULE
SYJ
   27    28     1     0     0
SMALL
abcg2


@<TRIPOS>ATOM
      1 C4          47.2900    15.0820    44.0010 ca         1 SYJ       0.268000
      2 C5          47.5210    14.7340    45.3180 ca         1 SYJ      -0.179000
      3 C6          49.1540    15.5310    40.8620 c3         1 SYJ       0.183500
      4 C7          48.8110    16.8310    40.2170 cc         1 SYJ       0.063300
      5 C8          48.7830    17.2200    38.9180 cd         1 SYJ      -0.158000
      6 C9          48.3450    18.5780    38.9160 cd         1 SYJ      -0.194000
      7 C10         48.1510    18.9060    40.2150 cc         1 SYJ       0.150900
      8 O1          45.9650    13.4010    40.7520 o          1 SYJ      -0.532500
      9 S           46.6950    14.5140    41.3380 sy         1 SYJ       1.157600
     10 O           46.1080    15.8400    41.2860 o          1 SYJ      -0.532500
     11 C3          47.0380    14.1170    43.0350 ca         1 SYJ      -0.314500
     12 C2          47.0240    12.7750    43.4070 ca         1 SYJ       0.014000
     13 C1          47.2530    12.4150    44.7230 ca         1 SYJ      -0.150000
     14 F           47.3370    16.3720    43.6720 f          1 SYJ      -0.149000
     15 C           47.4990    13.3960    45.6760 ca         1 SYJ      -0.031000
     16 N           48.1970    14.4480    40.6600 n7         1 SYJ      -0.886300
     17 O2          48.4320    17.8550    41.0090 os         1 SYJ      -0.213000
     18 H1          47.7160    15.5080    46.0490 ha         1 SYJ       0.136000
     19 H2          49.3250    15.6670    41.9310 h1         1 SYJ       0.076200
     20 H3          50.0950    15.1600    40.4570 h1         1 SYJ       0.076200
     21 H4          49.0410    16.6140    38.0640 ha         1 SYJ       0.138000
     22 H5          48.2010    19.2210    38.0640 ha         1 SYJ       0.143000
     23 H6          47.8370    19.8130    40.7050 h4         1 SYJ       0.056100
     24 H7          46.8280    12.0120    42.6670 ha         1 SYJ       0.142000
     25 H8          47.2380    11.3710    45.0030 ha         1 SYJ       0.125000
     26 H9          47.6770    13.1200    46.7060 ha         1 SYJ       0.121000
     27 H10         48.1490    14.1050    39.7060 hn         1 SYJ       0.491000
@<TRIPOS>BOND
     1     1     2 ar  
     2     1    11 ar  
     3     1    14 1   
     4     2    15 ar  
     5     2    18 1   
     6     3     4 1   
     7     3    16 1   
     8     3    19 1   
     9     3    20 1   
    10     4     5 2   
    11     4    17 1   
    12     5     6 1   
    13     5    21 1   
    14     6     7 2   
    15     6    22 1   
    16     7    17 1   
    17     7    23 1   
    18     8     9 2   
    19     9    10 2   
    20     9    11 1   
    21     9    16 1   
    22    11    12 ar  
    23    12    13 ar  
    24    12    24 1   
    25    13    15 ar  
    26    13    25 1   
    27    15    26 1   
    28    16    27 1   
@<TRIPOS>SUBSTRUCTURE
     1 SYJ         1 TEMP              0 ****  ****    0 ROOT
