@<TRIPOS>MOLECULE
SYL
   47    48     1     0     0
SMALL
No Charge or Current Charge


@<TRIPOS>ATOM
      1 O           13.6690    53.6170    -2.3790 oh         1 SYL      -0.662000
      2 C3          12.7280    53.2190    -3.3850 c3         1 SYL       0.213600
      3 C2          11.3190    53.0750    -2.7590 c3         1 SYL      -0.112400
      4 C1          10.6790    54.3870    -2.2570 c3         1 SYL       0.152800
      5 N           10.3600    55.2880    -3.3810 n7         1 SYL      -0.862400
      6 C            9.6730    56.5390    -3.0060 c3         1 SYL       0.142100
      7 C4          13.1940    51.9160    -4.0410 ca         1 SYL      -0.048300
      8 C16         13.4140    50.7550    -3.2690 ca         1 SYL      -0.116000
      9 C8          13.8340    49.5580    -3.8710 ca         1 SYL       0.138100
     10 C7          14.0400    49.5140    -5.2670 ca         1 SYL      -0.192000
     11 C6          13.8250    50.6660    -6.0430 ca         1 SYL      -0.076000
     12 C5          13.4050    51.8600    -5.4330 ca         1 SYL      -0.141000
     13 O1          14.0300    48.4610    -3.0570 os         1 SYL      -0.357100
     14 C9          14.4660    47.1910    -3.5740 c3         1 SYL       0.168600
     15 C10         14.5960    46.1760    -2.4020 c6         1 SYL      -0.065700
     16 C15         15.6660    46.6150    -1.3590 c6         1 SYL      -0.069900
     17 C14         15.7900    45.5880    -0.2050 c6         1 SYL      -0.072900
     18 C13         16.0980    44.1710    -0.7450 c6         1 SYL      -0.075400
     19 C12         15.0360    43.7250    -1.7790 c6         1 SYL      -0.072900
     20 C11         14.9140    44.7500    -2.9340 c6         1 SYL      -0.069900
     21 H1          13.4200    54.5240    -2.0980 ho         1 SYL       0.439000
     22 H2          12.6810    53.9900    -4.1660 h1         1 SYL       0.037700
     23 H3          10.6480    52.6200    -3.4980 hc         1 SYL       0.064700
     24 H4          11.3710    52.3710    -1.9200 hc         1 SYL       0.064700
     25 H5           9.7580    54.1330    -1.7140 h1         1 SYL       0.031200
     26 H6          11.3530    54.8790    -1.5410 h1         1 SYL       0.031200
     27 H7          11.2330    55.5360    -3.8620 hn         1 SYL       0.402000
     28 H9           9.4580    57.1440    -3.8970 h1         1 SYL       0.031367
     29 H10          8.7210    56.3270    -2.5020 h1         1 SYL       0.031367
     30 H11         10.2950    57.1400    -2.3280 h1         1 SYL       0.031367
     31 H12         13.2630    50.7820    -2.1940 ha         1 SYL       0.137000
     32 H13         14.3640    48.6040    -5.7630 ha         1 SYL       0.116000
     33 H14         13.9840    50.6330    -7.1190 ha         1 SYL       0.111000
     34 H15         13.2410    52.7430    -6.0470 ha         1 SYL       0.114000
     35 H16         13.7380    46.8050    -4.2990 h1         1 SYL       0.035200
     36 H17         15.4390    47.2880    -4.0740 h1         1 SYL       0.035200
     37 H18         13.6140    46.1490    -1.9090 hc         1 SYL       0.060700
     38 H19         16.6410    46.7320    -1.8520 hc         1 SYL       0.042700
     39 H20         15.4090    47.5980    -0.9410 hc         1 SYL       0.042700
     40 H21         16.5800    45.9020     0.4900 hc         1 SYL       0.039950
     41 H22         14.8560    45.5680     0.3740 hc         1 SYL       0.039950
     42 H23         16.1340    43.4540     0.0870 hc         1 SYL       0.038200
     43 H24         17.0950    44.1600    -1.2090 hc         1 SYL       0.038200
     44 H25         14.0630    43.6080    -1.2830 hc         1 SYL       0.039950
     45 H26         15.3010    42.7390    -2.1830 hc         1 SYL       0.039950
     46 H27         14.1270    44.4250    -3.6290 hc         1 SYL       0.042700
     47 H28         15.8500    44.7670    -3.5100 hc         1 SYL       0.042700
@<TRIPOS>BOND
     1     1     2 1   
     2     1    21 1   
     3     2     3 1   
     4     2     7 1   
     5     2    22 1   
     6     3     4 1   
     7     3    23 1   
     8     3    24 1   
     9     4     5 1   
    10     4    25 1   
    11     4    26 1   
    12     5     6 1   
    13     5    27 1   
    14     6    28 1   
    15     6    29 1   
    16     6    30 1   
    17     7     8 ar  
    18     7    12 ar  
    19     8     9 ar  
    20     8    31 1   
    21     9    10 ar  
    22     9    13 1   
    23    10    11 ar  
    24    10    32 1   
    25    11    12 ar  
    26    11    33 1   
    27    12    34 1   
    28    13    14 1   
    29    14    15 1   
    30    14    35 1   
    31    14    36 1   
    32    15    16 1   
    33    15    20 1   
    34    15    37 1   
    35    16    17 1   
    36    16    38 1   
    37    16    39 1   
    38    17    18 1   
    39    17    40 1   
    40    17    41 1   
    41    18    19 1   
    42    18    42 1   
    43    18    43 1   
    44    19    20 1   
    45    19    44 1   
    46    19    45 1   
    47    20    46 1   
    48    20    47 1   
@<TRIPOS>SUBSTRUCTURE
     1 SYL         1 TEMP              0 ****  ****    0 ROOT
