@<TRIPOS>MOLECULE
SYL
   47    48     1     0     0
SMALL
abcg2


@<TRIPOS>ATOM
      1 O           13.3860    53.2810    -2.1740 oh         1 SYL      -0.662000
      2 C3          12.6290    53.0840    -3.3770 c3         1 SYL       0.213600
      3 C2          11.1210    53.0620    -3.0970 c3         1 SYL      -0.112400
      4 C1          10.5620    54.3500    -2.5040 c3         1 SYL       0.152800
      5 N           10.6580    55.4810    -3.4240 n7         1 SYL      -0.862400
      6 C           10.1270    56.7120    -2.8430 c3         1 SYL       0.142100
      7 C4          13.0780    51.7900    -4.0130 ca         1 SYL      -0.048300
      8 C16         13.3120    50.6640    -3.2360 ca         1 SYL      -0.116000
      9 C8          13.6920    49.4560    -3.8270 ca         1 SYL       0.138100
     10 C7          13.8320    49.3730    -5.2140 ca         1 SYL      -0.192000
     11 C6          13.5880    50.5060    -5.9870 ca         1 SYL      -0.076000
     12 C5          13.2180    51.7080    -5.4000 ca         1 SYL      -0.141000
     13 O1          13.8980    48.4170    -2.9750 os         1 SYL      -0.357100
     14 C9          14.3860    47.1780    -3.5040 c3         1 SYL       0.168600
     15 C10         14.5930    46.2040    -2.3600 c6         1 SYL      -0.065700
     16 C15         15.6310    46.7030    -1.3490 c6         1 SYL      -0.069900
     17 C14         15.8610    45.6870    -0.2280 c6         1 SYL      -0.072900
     18 C13         16.2570    44.3180    -0.7840 c6         1 SYL      -0.075400
     19 C12         15.2280    43.8140    -1.7980 c6         1 SYL      -0.072900
     20 C11         14.9960    44.8320    -2.9160 c6         1 SYL      -0.069900
     21 H1          13.0910    54.1020    -1.7610 ho         1 SYL       0.439000
     22 H2          12.8560    53.8940    -4.0790 h1         1 SYL       0.037700
     23 H3          10.6030    52.8460    -4.0360 hc         1 SYL       0.064700
     24 H4          10.9160    52.2350    -2.4120 hc         1 SYL       0.064700
     25 H5           9.5040    54.1960    -2.2760 h1         1 SYL       0.031200
     26 H6          11.0470    54.5660    -1.5360 h1         1 SYL       0.031200
     27 H7          11.6300    55.6350    -3.6690 hn         1 SYL       0.402000
     28 H9          10.2870    57.5420    -3.5320 h1         1 SYL       0.031367
     29 H10          9.0520    56.6050    -2.6810 h1         1 SYL       0.031367
     30 H11         10.5870    56.9690    -1.8770 h1         1 SYL       0.031367
     31 H12         13.2140    50.7080    -2.1590 ha         1 SYL       0.137000
     32 H13         14.1260    48.4510    -5.6910 ha         1 SYL       0.116000
     33 H14         13.7000    50.4430    -7.0630 ha         1 SYL       0.111000
     34 H15         13.0430    52.5850    -6.0120 ha         1 SYL       0.114000
     35 H16         13.6610    46.7770    -4.2200 h1         1 SYL       0.035200
     36 H17         15.3290    47.3560    -4.0310 h1         1 SYL       0.035200
     37 H18         13.6330    46.0910    -1.8410 hc         1 SYL       0.060700
     38 H19         16.5760    46.8810    -1.8770 hc         1 SYL       0.042700
     39 H20         15.3150    47.6610    -0.9320 hc         1 SYL       0.042700
     40 H21         16.6290    46.0540     0.4570 hc         1 SYL       0.039950
     41 H22         14.9400    45.5840     0.3570 hc         1 SYL       0.039950
     42 H23         16.3700    43.5970     0.0290 hc         1 SYL       0.038200
     43 H24         17.2340    44.3990    -1.2740 hc         1 SYL       0.038200
     44 H25         14.2790    43.6240    -1.2840 hc         1 SYL       0.039950
     45 H26         15.5510    42.8600    -2.2250 hc         1 SYL       0.039950
     46 H27         14.2270    44.4690    -3.6040 hc         1 SYL       0.042700
     47 H28         15.9180    44.9440    -3.4990 hc         1 SYL       0.042700
@<TRIPOS>BOND
     1     1     2 1   
     2     1    21 1   
     3     2     3 1   
     4     2     7 1   
     5     2    22 1   
     6     3     4 1   
     7     3    23 1   
     8     3    24 1   
     9     4     5 1   
    10     4    25 1   
    11     4    26 1   
    12     5     6 1   
    13     5    27 1   
    14     6    28 1   
    15     6    29 1   
    16     6    30 1   
    17     7     8 ar  
    18     7    12 ar  
    19     8     9 ar  
    20     8    31 1   
    21     9    10 ar  
    22     9    13 1   
    23    10    11 ar  
    24    10    32 1   
    25    11    12 ar  
    26    11    33 1   
    27    12    34 1   
    28    13    14 1   
    29    14    15 1   
    30    14    35 1   
    31    14    36 1   
    32    15    16 1   
    33    15    20 1   
    34    15    37 1   
    35    16    17 1   
    36    16    38 1   
    37    16    39 1   
    38    17    18 1   
    39    17    40 1   
    40    17    41 1   
    41    18    19 1   
    42    18    42 1   
    43    18    43 1   
    44    19    20 1   
    45    19    44 1   
    46    19    45 1   
    47    20    46 1   
    48    20    47 1   
@<TRIPOS>SUBSTRUCTURE
     1 SYL         1 TEMP              0 ****  ****    0 ROOT
