@<TRIPOS>MOLECULE
SYM
   20    19     1     0     0
SMALL
abcg2


@<TRIPOS>ATOM
      1 CB          -0.0250     0.5930     0.6510 c3         1 SYM      -0.018400
      2 CG1          1.4220     0.8090     0.2230 c3         1 SYM      -0.186700
      3 CG2          2.2460     1.3250     1.4040 c3         1 SYM      -0.056100
      4 CD           2.0780    -0.4750    -0.3200 c          1 SYM       0.723000
      5 OE1          2.7660    -0.3740    -1.3580 o          1 SYM      -0.759000
      6 OE2          1.9060    -1.5200     0.3440 o          1 SYM      -0.759000
      7 C           -2.3670    -0.1140     0.1570 c          1 SYM       0.685000
      8 OT1         -2.5000    -1.1880     0.7810 o          1 SYM      -0.762500
      9 OT2         -3.2380     0.7720     0.0260 o          1 SYM      -0.762500
     10 N           -0.9720     1.1350    -1.5450 n8         1 SYM      -0.975200
     11 CA          -0.9770     0.1560    -0.4650 c3         1 SYM       0.020500
     12 HB1         -0.0540    -0.1540     1.4470 hc         1 SYM       0.019200
     13 HB2         -0.4070     1.5250     1.0880 hc         1 SYM       0.019200
     14 HG1          1.4430     1.5640    -0.5660 hc         1 SYM       0.038700
     15 HG21         3.2810     1.5250     1.1170 hc         1 SYM      -0.003300
     16 HG22         1.8300     2.2550     1.8000 hc         1 SYM      -0.003300
     17 HG23         2.2620     0.5970     2.2180 hc         1 SYM      -0.003300
     18 HA          -0.6030    -0.7900    -0.8700 h1         1 SYM       0.070700
     19 HN1         -1.5170     0.7680    -2.3170 hn         1 SYM       0.357500
     20 HN2         -1.5040     1.9380    -1.2280 hn         1 SYM       0.357500
@<TRIPOS>BOND
     1     1     2 1   
     2     1    11 1   
     3     1    12 1   
     4     1    13 1   
     5     2     3 1   
     6     2     4 1   
     7     2    14 1   
     8     3    15 1   
     9     3    16 1   
    10     3    17 1   
    11     4     5 1   
    12     4     6 1   
    13     7     8 1   
    14     7     9 1   
    15     7    11 1   
    16    10    11 1   
    17    10    19 1   
    18    10    20 1   
    19    11    18 1   
@<TRIPOS>SUBSTRUCTURE
     1 SYM         1 TEMP              0 ****  ****    0 ROOT
