@<TRIPOS>MOLECULE
SYM
   20    19     1     0     0
SMALL
No Charge or Current Charge


@<TRIPOS>ATOM
      1 CB          -0.0290     0.6810     0.6530 c3         1 SYM      -0.018400
      2 CG1          1.4750     0.7960     0.2650 c3         1 SYM      -0.186700
      3 CG2          2.3170     1.3790     1.4250 c3         1 SYM      -0.056100
      4 CD           2.0620    -0.5520    -0.2190 c          1 SYM       0.723000
      5 OE1          2.5370    -0.6080    -1.3440 o          1 SYM      -0.759000
      6 OE2          2.0510    -1.5070     0.5460 o          1 SYM      -0.759000
      7 C           -2.3750    -0.2440     0.1380 c          1 SYM       0.685000
      8 OT1         -2.6930    -1.4250     0.0850 o          1 SYM      -0.762500
      9 OT2         -3.1360     0.6280     0.5380 o          1 SYM      -0.762500
     10 N           -1.0460     1.1850    -1.6110 n8         1 SYM      -0.975200
     11 CA          -0.9810     0.1870    -0.4770 c3         1 SYM       0.020500
     12 HB1         -0.1150    -0.0080     1.5030 hc         1 SYM       0.019200
     13 HB2         -0.3840     1.6540     1.0160 hc         1 SYM       0.019200
     14 HG1          1.5570     1.5100    -0.5640 hc         1 SYM       0.038700
     15 HG21         3.3670     1.4750     1.1270 hc         1 SYM      -0.003300
     16 HG22         1.9520     2.3750     1.7060 hc         1 SYM      -0.003300
     17 HG23         2.2680     0.7340     2.3110 hc         1 SYM      -0.003300
     18 HA          -0.5480    -0.7370    -0.8860 h1         1 SYM       0.070700
     19 HN1         -1.6570     0.8120    -2.3470 hn         1 SYM       0.357500
     20 HN2         -1.5520     2.0140    -1.2780 hn         1 SYM       0.357500
@<TRIPOS>BOND
     1     1     2 1   
     2     1    11 1   
     3     1    12 1   
     4     1    13 1   
     5     2     3 1   
     6     2     4 1   
     7     2    14 1   
     8     3    15 1   
     9     3    16 1   
    10     3    17 1   
    11     4     5 1   
    12     4     6 1   
    13     7     8 1   
    14     7     9 1   
    15     7    11 1   
    16    10    11 1   
    17    10    19 1   
    18    10    20 1   
    19    11    18 1   
@<TRIPOS>SUBSTRUCTURE
     1 SYM         1 TEMP              0 ****  ****    0 ROOT
