@<TRIPOS>MOLECULE
SYN
   16    16     1     0     0
SMALL
bcc


@<TRIPOS>ATOM
      1 CAF         -0.3870     1.2450     0.0020 ca         1 SYN      -0.117500
      2 CAD         -1.7540     1.0030     0.0190 ca         1 SYN      -0.130000
      3 CAC         -2.2280    -0.3010     0.0440 ca         1 SYN      -0.125000
      4 CAE         -1.3240    -1.3580     0.0520 ca         1 SYN      -0.130000
      5 CAG          0.0390    -1.1150     0.0350 ca         1 SYN      -0.117500
      6 CAH          0.5320     0.1940     0.0100 ca         1 SYN      -0.054800
      7 CAB          1.9660     0.5060    -0.0090 ce         1 SYN      -0.111200
      8 CAA          2.9740    -0.3660     0.0070 c2         1 SYN      -0.206000
      9 H1          -0.0250     2.2670    -0.0190 ha         1 SYN       0.128500
     10 H2          -2.4470     1.8330     0.0120 ha         1 SYN       0.129500
     11 H3          -3.2930    -0.4920     0.0570 ha         1 SYN       0.130000
     12 H4          -1.6850    -2.3790     0.0710 ha         1 SYN       0.129500
     13 H5           0.7240    -1.9540     0.0390 ha         1 SYN       0.128500
     14 H6           2.2040     1.5650    -0.0380 ha         1 SYN       0.119000
     15 H8           4.0000    -0.0240    -0.0100 ha         1 SYN       0.113000
     16 H9           2.8260    -1.4380     0.0360 ha         1 SYN       0.113000
@<TRIPOS>BOND
     1     1     2 ar  
     2     1     6 ar  
     3     1     9 1   
     4     2     3 ar  
     5     2    10 1   
     6     3     4 ar  
     7     3    11 1   
     8     4     5 ar  
     9     4    12 1   
    10     5     6 ar  
    11     5    13 1   
    12     6     7 1   
    13     7     8 2   
    14     7    14 1   
    15     8    15 1   
    16     8    16 1   
@<TRIPOS>SUBSTRUCTURE
     1 SYN         1 TEMP              0 ****  ****    0 ROOT
