@<TRIPOS>MOLECULE
SYN
   16    16     1     0     0
SMALL
No Charge or Current Charge


@<TRIPOS>ATOM
      1 CAF         -0.3930     1.2680     0.0090 ca         1 SYN      -0.099500
      2 CAD         -1.7760     1.0150     0.0410 ca         1 SYN      -0.112000
      3 CAC         -2.2490    -0.3060     0.0540 ca         1 SYN      -0.107000
      4 CAE         -1.3380    -1.3740     0.0340 ca         1 SYN      -0.112000
      5 CAG          0.0450    -1.1220     0.0020 ca         1 SYN      -0.099500
      6 CAH          0.5320     0.2040    -0.0090 ca         1 SYN      -0.054800
      7 CAB          1.9930     0.5170    -0.0450 ce         1 SYN      -0.161200
      8 CAA          3.0050    -0.3750     0.0440 c2         1 SYN      -0.306000
      9 H1          -0.0420     2.2970    -0.0010 ha         1 SYN       0.110500
     10 H2          -2.4800     1.8450     0.0560 ha         1 SYN       0.111500
     11 H3          -3.3190    -0.5020     0.0790 ha         1 SYN       0.112000
     12 H4          -1.7030    -2.3990     0.0420 ha         1 SYN       0.111500
     13 H5           0.7270    -1.9670    -0.0180 ha         1 SYN       0.110500
     14 H6           2.2270     1.5800    -0.1480 ha         1 SYN       0.169000
     15 H8           4.0460    -0.0480     0.0110 ha         1 SYN       0.163000
     16 H9           2.8470    -1.4460     0.1570 ha         1 SYN       0.163000
@<TRIPOS>BOND
     1     1     2 ar  
     2     1     6 ar  
     3     1     9 1   
     4     2     3 ar  
     5     2    10 1   
     6     3     4 ar  
     7     3    11 1   
     8     4     5 ar  
     9     4    12 1   
    10     5     6 ar  
    11     5    13 1   
    12     6     7 1   
    13     7     8 2   
    14     7    14 1   
    15     8    15 1   
    16     8    16 1   
@<TRIPOS>SUBSTRUCTURE
     1 SYN         1 TEMP              0 ****  ****    0 ROOT
