@<TRIPOS>MOLECULE
SYP
   37    37     1     0     0
SMALL
No Charge or Current Charge


@<TRIPOS>ATOM
      1 C1           1.2530    -0.9340    -0.0830 ca         1 SYP      -0.372000
      2 C2           0.6000    -2.1500    -0.2940 ca         1 SYP       0.405900
      3 N3           1.2610    -3.3150    -0.3330 nb         1 SYP      -0.296000
      4 C4           2.5950    -3.2490    -0.1560 ca         1 SYP       0.195900
      5 N5           3.3210    -2.1320     0.0540 nb         1 SYP      -0.298000
      6 C6           2.6370    -0.9810     0.0880 ca         1 SYP       0.407900
      7 N7           3.3960     0.1530     0.3040 nu         1 SYP      -0.940100
      8 C8           2.9170     1.5470     0.3910 c3         1 SYP       0.242800
      9 C9           4.0770     2.5360     0.6420 c3         1 SYP       0.056600
     10 S10          3.5420     4.3120     0.7630 sh         1 SYP      -0.437800
     11 N11         -0.7670    -2.2360    -0.4780 nu         1 SYP      -0.930100
     12 C12         -1.7430    -1.1270    -0.4630 c3         1 SYP       0.204800
     13 C13         -3.1880    -1.6260    -0.7160 c3         1 SYP       0.090000
     14 N14         -4.1760    -0.5370    -0.7670 ns         1 SYP      -0.514900
     15 C15         -4.5820     0.2070     0.3180 c          1 SYP       0.596100
     16 C16         -5.6120     1.2990     0.0080 c3         1 SYP      -0.156400
     17 O17         -4.1750    -0.0120     1.4490 o          1 SYP      -0.593100
     18 C18         -4.9820     2.7080     0.0660 c3         1 SYP      -0.078100
     19 H1           0.7090     0.0020    -0.0540 ha         1 SYP       0.129000
     20 H4           3.1410    -4.1910    -0.1860 h5         1 SYP       0.040100
     21 HN7          4.3970    -0.0170     0.4140 hn         1 SYP       0.503000
     22 H8           2.4090     1.8280    -0.5420 h1         1 SYP       0.056200
     23 H8A          2.1880     1.6420     1.2090 h1         1 SYP       0.056200
     24 H9           4.5830     2.2680     1.5790 h1         1 SYP       0.067200
     25 H9A          4.8040     2.4530    -0.1750 h1         1 SYP       0.067200
     26 HS10         4.7790     4.8270     0.9740 hs         1 SYP       0.217800
     27 HN11        -1.1210    -3.1840    -0.6150 hn         1 SYP       0.500000
     28 H12         -1.7040    -0.6130     0.5070 h1         1 SYP       0.049700
     29 H12A        -1.4830    -0.3950    -1.2400 h1         1 SYP       0.049700
     30 H13         -3.2200    -2.1650    -1.6720 h1         1 SYP       0.061700
     31 H13A        -3.4760    -2.3270     0.0780 h1         1 SYP       0.061700
     32 HN14        -4.5790    -0.2920    -1.6650 hn         1 SYP       0.313500
     33 H16         -6.0290     1.1520    -0.9950 hc         1 SYP       0.054700
     34 H16A        -6.4140     1.2510     0.7540 hc         1 SYP       0.054700
     35 H18         -4.5730     2.9100     1.0640 hc         1 SYP       0.043700
     36 H18A        -4.1690     2.8000    -0.6650 hc         1 SYP       0.043700
     37 H18B        -5.7340     3.4740    -0.1580 hc         1 SYP       0.043700
@<TRIPOS>BOND
     1     1     2 ar  
     2     1     6 ar  
     3     1    19 1   
     4     2     3 ar  
     5     2    11 1   
     6     3     4 ar  
     7     4     5 ar  
     8     4    20 1   
     9     5     6 ar  
    10     6     7 1   
    11     7     8 1   
    12     7    21 1   
    13     8     9 1   
    14     8    22 1   
    15     8    23 1   
    16     9    10 1   
    17     9    24 1   
    18     9    25 1   
    19    10    26 1   
    20    11    12 1   
    21    11    27 1   
    22    12    13 1   
    23    12    28 1   
    24    12    29 1   
    25    13    14 1   
    26    13    30 1   
    27    13    31 1   
    28    14    15 1   
    29    14    32 1   
    30    15    16 1   
    31    15    17 2   
    32    16    18 1   
    33    16    33 1   
    34    16    34 1   
    35    18    35 1   
    36    18    36 1   
    37    18    37 1   
@<TRIPOS>SUBSTRUCTURE
     1 SYP         1 TEMP              0 ****  ****    0 ROOT
