@<TRIPOS>MOLECULE
SYP
   37    37     1     0     0
SMALL
abcg2


@<TRIPOS>ATOM
      1 C1           1.2710    -0.9460    -0.0480 ca         1 SYP      -0.372000
      2 C2           0.5990    -2.1640    -0.1630 ca         1 SYP       0.405900
      3 N3           1.2570    -3.3390    -0.1340 nb         1 SYP      -0.296000
      4 C4           2.5650    -3.2620     0.0080 ca         1 SYP       0.195900
      5 N5           3.3130    -2.1830     0.1300 nb         1 SYP      -0.298000
      6 C6           2.6570    -1.0070     0.1080 ca         1 SYP       0.407900
      7 N7           3.4170     0.0950     0.2490 nu         1 SYP      -0.940100
      8 C8           2.9070     1.4410     0.1820 c3         1 SYP       0.242800
      9 C9           4.0270     2.4240     0.4820 c3         1 SYP       0.056600
     10 S10          3.3470     4.1110     0.4050 sh         1 SYP      -0.437800
     11 N11         -0.7390    -2.2380    -0.3060 nu         1 SYP      -0.930100
     12 C12         -1.5840    -1.0890    -0.5170 c3         1 SYP       0.204800
     13 C13         -3.0430    -1.5220    -0.6000 c3         1 SYP       0.090000
     14 N14         -3.9210    -0.4050    -0.8390 ns         1 SYP      -0.514900
     15 C15         -4.4310     0.3600     0.1450 c          1 SYP       0.596100
     16 C16         -5.3620     1.4600    -0.3200 c3         1 SYP      -0.156400
     17 O17         -4.1880     0.1600     1.3270 o          1 SYP      -0.593100
     18 C18         -5.4450     2.6230     0.6540 c3         1 SYP      -0.078100
     19 H1           0.7430    -0.0050    -0.0870 ha         1 SYP       0.129000
     20 H4           3.0960    -4.2100     0.0250 h5         1 SYP       0.040100
     21 HN7          4.4140    -0.0480     0.2320 hn         1 SYP       0.503000
     22 H8           2.4820     1.6560    -0.8060 h1         1 SYP       0.056200
     23 H8A          2.1040     1.5710     0.9130 h1         1 SYP       0.056200
     24 H9           4.4350     2.2370     1.4750 h1         1 SYP       0.067200
     25 H9A          4.8280     2.3190    -0.2510 h1         1 SYP       0.067200
     26 HS10         4.4670     4.7570     0.7420 hs         1 SYP       0.217800
     27 HN11        -1.1030    -3.1520    -0.5270 hn         1 SYP       0.500000
     28 H12         -1.4660    -0.3840     0.3100 h1         1 SYP       0.049700
     29 H12A        -1.3090    -0.5590    -1.4370 h1         1 SYP       0.049700
     30 H13         -3.1730    -2.2350    -1.4150 h1         1 SYP       0.061700
     31 H13A        -3.3360    -2.0240     0.3230 h1         1 SYP       0.061700
     32 HN14        -4.1220    -0.1630    -1.7950 hn         1 SYP       0.313500
     33 H16         -5.0600     1.8120    -1.3090 hc         1 SYP       0.054700
     34 H16A        -6.3530     1.0130    -0.4540 hc         1 SYP       0.054700
     35 H18         -5.8040     2.3020     1.6310 hc         1 SYP       0.043700
     36 H18A        -4.4730     3.0980     0.7920 hc         1 SYP       0.043700
     37 H18B        -6.1330     3.3800     0.2790 hc         1 SYP       0.043700
@<TRIPOS>BOND
     1     1     2 ar  
     2     1     6 ar  
     3     1    19 1   
     4     2     3 ar  
     5     2    11 1   
     6     3     4 ar  
     7     4     5 ar  
     8     4    20 1   
     9     5     6 ar  
    10     6     7 1   
    11     7     8 1   
    12     7    21 1   
    13     8     9 1   
    14     8    22 1   
    15     8    23 1   
    16     9    10 1   
    17     9    24 1   
    18     9    25 1   
    19    10    26 1   
    20    11    12 1   
    21    11    27 1   
    22    12    13 1   
    23    12    28 1   
    24    12    29 1   
    25    13    14 1   
    26    13    30 1   
    27    13    31 1   
    28    14    15 1   
    29    14    32 1   
    30    15    16 1   
    31    15    17 2   
    32    16    18 1   
    33    16    33 1   
    34    16    34 1   
    35    18    35 1   
    36    18    36 1   
    37    18    37 1   
@<TRIPOS>SUBSTRUCTURE
     1 SYP         1 TEMP              0 ****  ****    0 ROOT
