@<TRIPOS>MOLECULE
SYQ
   31    32     1     0     0
SMALL
abcg2


@<TRIPOS>ATOM
      1 N1         -60.4530    12.4080   -15.4630 nb         1 SYQ      -0.687000
      2 C4         -61.3330    13.4680   -13.5140 ca         1 SYQ      -0.109000
      3 C5         -60.0590    13.5020   -12.9600 ca         1 SYQ      -0.081000
      4 C6         -58.9990    12.9820   -13.6790 ca         1 SYQ      -0.149000
      5 C7         -59.2340    12.4330   -14.9420 ca         1 SYQ       0.357300
      6 C8         -58.1160    11.8390   -15.7420 c3         1 SYQ      -0.146400
      7 C10        -64.6460    10.5530   -19.4630 cx         1 SYQ      -0.127900
      8 O          -63.8150    13.3190   -14.8510 o          1 SYQ      -0.614100
      9 N          -62.8510    12.2800   -16.6210 ns         1 SYQ      -0.485900
     10 C1         -64.0400    12.1490   -17.4470 c3         1 SYQ       0.146700
     11 C9         -63.9620    10.8150   -18.1600 cx         1 SYQ      -0.140700
     12 C11        -63.1500    10.6260   -19.4070 cx         1 SYQ      -0.127900
     13 C          -64.2050    13.3640   -18.3520 c3         1 SYQ      -0.110100
     14 C3         -61.4730    12.9100   -14.7730 ca         1 SYQ       0.295500
     15 H1         -62.1860    13.8660   -12.9850 ha         1 SYQ       0.150000
     16 H2         -59.8980    13.9320   -11.9810 ha         1 SYQ       0.123000
     17 H3         -57.9960    12.9980   -13.2740 ha         1 SYQ       0.124000
     18 H4         -58.4410    11.6190   -16.7560 hc         1 SYQ       0.052367
     19 H5         -57.2590    12.5110   -15.7860 hc         1 SYQ       0.052367
     20 H6         -57.7720    10.9090   -15.2850 hc         1 SYQ       0.052367
     21 H8         -65.1080     9.5830   -19.6000 hc         1 SYQ       0.071700
     22 H9         -61.9630    11.9800   -16.9980 hn         1 SYQ       0.340500
     23 H10        -64.8970    12.1140   -16.7700 h1         1 SYQ       0.078700
     24 H11        -63.9470     9.9780   -17.4690 hc         1 SYQ       0.083700
     25 H12        -62.5830     9.7100   -19.5100 hc         1 SYQ       0.071700
     26 H13        -62.6730    11.4910   -19.8520 hc         1 SYQ       0.071700
     27 H14        -64.2430    14.2710   -17.7480 hc         1 SYQ       0.042700
     28 H15        -63.3760    13.4690   -19.0540 hc         1 SYQ       0.042700
     29 H16        -65.1320    13.3130   -18.9210 hc         1 SYQ       0.042700
     30 C2         -62.8310    12.8590   -15.4180 c          1 SYQ       0.506600
     31 H7         -65.1740    11.3620   -19.9490 hc         1 SYQ       0.071700
@<TRIPOS>BOND
     1     1     5 ar  
     2     1    14 ar  
     3     2     3 ar  
     4     2    14 ar  
     5     2    15 1   
     6     3     4 ar  
     7     3    16 1   
     8     4     5 ar  
     9     4    17 1   
    10     5     6 1   
    11     6    18 1   
    12     6    19 1   
    13     6    20 1   
    14     7    11 1   
    15     7    12 1   
    16     7    21 1   
    17     7    31 1   
    18     8    30 2   
    19     9    10 1   
    20     9    22 1   
    21     9    30 1   
    22    10    11 1   
    23    10    13 1   
    24    10    23 1   
    25    11    12 1   
    26    11    24 1   
    27    12    25 1   
    28    12    26 1   
    29    13    27 1   
    30    13    28 1   
    31    13    29 1   
    32    14    30 1   
@<TRIPOS>SUBSTRUCTURE
     1 SYQ         1 TEMP              0 ****  ****    0 ROOT
