@<TRIPOS>MOLECULE
SYQ
   31    32     1     0     0
SMALL
No Charge or Current Charge


@<TRIPOS>ATOM
      1 N1         -60.3840    12.3550   -15.4280 nb         1 SYQ      -0.687000
      2 C4         -61.2510    13.6230   -13.5500 ca         1 SYQ      -0.109000
      3 C5         -59.9750    13.6720   -12.9650 ca         1 SYQ      -0.081000
      4 C6         -58.9120    13.0500   -13.6370 ca         1 SYQ      -0.149000
      5 C7         -59.1570    12.4060   -14.8630 ca         1 SYQ       0.357300
      6 C8         -58.0440    11.7160   -15.6250 c3         1 SYQ      -0.146400
      7 C10        -64.6660    10.5110   -19.5600 cx         1 SYQ      -0.127900
      8 O          -63.8240    13.4130   -14.9150 o          1 SYQ      -0.614100
      9 N          -62.8980    12.2300   -16.6260 ns         1 SYQ      -0.485900
     10 C1         -64.0970    12.0660   -17.4420 c3         1 SYQ       0.146700
     11 C9         -63.9490    10.7700   -18.2520 cx         1 SYQ      -0.140700
     12 C11        -63.1640    10.6920   -19.5430 cx         1 SYQ      -0.127900
     13 C          -64.3710    13.3510   -18.2600 c3         1 SYQ      -0.110100
     14 C3         -61.4310    12.9580   -14.7840 ca         1 SYQ       0.295500
     15 H1         -62.0950    14.0950   -13.0550 ha         1 SYQ       0.150000
     16 H2         -59.8160    14.1780   -12.0150 ha         1 SYQ       0.123000
     17 H3         -57.9100    13.0640   -13.2150 ha         1 SYQ       0.124000
     18 H4         -58.1240    11.9040   -16.7030 hc         1 SYQ       0.052367
     19 H5         -57.0590    12.0690   -15.3010 hc         1 SYQ       0.052367
     20 H6         -58.0810    10.6320   -15.4680 hc         1 SYQ       0.052367
     21 H8         -65.0510     9.5090   -19.7330 hc         1 SYQ       0.071700
     22 H9         -62.0220    11.8420   -16.9600 hn         1 SYQ       0.340500
     23 H10        -64.9490    11.9250   -16.7620 h1         1 SYQ       0.078700
     24 H11        -63.8580     9.9100   -17.5910 hc         1 SYQ       0.083700
     25 H12        -62.5460     9.8120   -19.7060 hc         1 SYQ       0.071700
     26 H13        -62.7600    11.6080   -19.9680 hc         1 SYQ       0.071700
     27 H14        -64.4690    14.2150   -17.5920 hc         1 SYQ       0.042700
     28 H15        -63.5560    13.5620   -18.9620 hc         1 SYQ       0.042700
     29 H16        -65.3080    13.2680   -18.8220 hc         1 SYQ       0.042700
     30 C2         -62.8270    12.9050   -15.4210 c          1 SYQ       0.506600
     31 H7         -65.2620    11.3020   -20.0070 hc         1 SYQ       0.071700
@<TRIPOS>BOND
     1     1     5 ar  
     2     1    14 ar  
     3     2     3 ar  
     4     2    14 ar  
     5     2    15 1   
     6     3     4 ar  
     7     3    16 1   
     8     4     5 ar  
     9     4    17 1   
    10     5     6 1   
    11     6    18 1   
    12     6    19 1   
    13     6    20 1   
    14     7    11 1   
    15     7    12 1   
    16     7    21 1   
    17     7    31 1   
    18     8    30 2   
    19     9    10 1   
    20     9    22 1   
    21     9    30 1   
    22    10    11 1   
    23    10    13 1   
    24    10    23 1   
    25    11    12 1   
    26    11    24 1   
    27    12    25 1   
    28    12    26 1   
    29    13    27 1   
    30    13    28 1   
    31    13    29 1   
    32    14    30 1   
@<TRIPOS>SUBSTRUCTURE
     1 SYQ         1 TEMP              0 ****  ****    0 ROOT
