@<TRIPOS>MOLECULE
SYR
   27    27     1     0     0
SMALL
abcg2


@<TRIPOS>ATOM
      1 O3          -1.8470    -0.0250     2.7940 o          1 SYR      -0.493000
      2 C8          -0.7110    -0.0050     2.3810 c          1 SYR       0.609700
      3 O4           0.3490    -0.0080     3.1750 os         1 SYR      -0.443100
      4 C10          0.1220    -0.0330     4.5830 c3         1 SYR       0.154900
      5 C6          -0.3530     0.0210     0.9450 ca         1 SYR      -0.115600
      6 C5          -1.3940     0.0260     0.0190 ca         1 SYR      -0.134000
      7 C4          -1.1160     0.0510    -1.3390 ca         1 SYR       0.084100
      8 O2          -2.0410     0.0580    -2.3170 os         1 SYR      -0.343100
      9 C7          -3.4040     0.0410    -1.9420 c3         1 SYR       0.150900
     10 C1           0.9730     0.0410     0.5200 ca         1 SYR      -0.134000
     11 C2           1.2500     0.0660    -0.8380 ca         1 SYR       0.084100
     12 O5           2.4840     0.0850    -1.3830 os         1 SYR      -0.343100
     13 C9           3.6070     0.0990    -0.5220 c3         1 SYR       0.150900
     14 C3           0.2120     0.0710    -1.7760 ca         1 SYR       0.114100
     15 O1           0.4470     0.0950    -3.0970 oh         1 SYR      -0.508100
     16 H101         1.1070    -0.0290     5.0420 h1         1 SYR       0.048367
     17 H102        -0.4330     0.8440     4.9130 h1         1 SYR       0.048367
     18 H103        -0.4130    -0.9330     4.8840 h1         1 SYR       0.048367
     19 H5          -2.4150     0.0110     0.3740 ha         1 SYR       0.140000
     20 H7C1        -3.9770     0.0510    -2.8660 h1         1 SYR       0.043533
     21 H7C2        -3.6620    -0.8600    -1.3790 h1         1 SYR       0.043533
     22 H7C3        -3.6760     0.9180    -1.3490 h1         1 SYR       0.043533
     23 H1           1.7770     0.0360     1.2400 ha         1 SYR       0.140000
     24 H9C1         4.4850     0.1220    -1.1620 h1         1 SYR       0.043533
     25 H9C2         3.6140     0.9830     0.1190 h1         1 SYR       0.043533
     26 H9C3         3.6500    -0.7970     0.1020 h1         1 SYR       0.043533
     27 HA           1.3990     0.1050    -3.2600 ho         1 SYR       0.479000
@<TRIPOS>BOND
     1     1     2 2   
     2     2     3 1   
     3     2     5 1   
     4     3     4 1   
     5     4    16 1   
     6     4    17 1   
     7     4    18 1   
     8     5     6 ar  
     9     5    10 ar  
    10     6     7 ar  
    11     6    19 1   
    12     7     8 1   
    13     7    14 ar  
    14     8     9 1   
    15     9    20 1   
    16     9    21 1   
    17     9    22 1   
    18    10    11 ar  
    19    10    23 1   
    20    11    12 1   
    21    11    14 ar  
    22    12    13 1   
    23    13    24 1   
    24    13    25 1   
    25    13    26 1   
    26    14    15 1   
    27    15    27 1   
@<TRIPOS>SUBSTRUCTURE
     1 SYR         1 TEMP              0 ****  ****    0 ROOT
