@<TRIPOS>MOLECULE
SYR
   27    27     1     0     0
SMALL
No Charge or Current Charge


@<TRIPOS>ATOM
      1 O3          -1.8630    -0.0250     2.8390 o          1 SYR      -0.493000
      2 C8          -0.7130    -0.0050     2.4180 c          1 SYR       0.609700
      3 O4           0.3890    -0.0070     3.2370 os         1 SYR      -0.443100
      4 C10          0.1790    -0.0330     4.6610 c3         1 SYR       0.154900
      5 C6          -0.3780     0.0230     0.9370 ca         1 SYR      -0.115600
      6 C5          -1.4210     0.0270    -0.0180 ca         1 SYR      -0.134000
      7 C4          -1.1390     0.0540    -1.4020 ca         1 SYR       0.084100
      8 O2          -2.1470     0.0580    -2.3550 os         1 SYR      -0.343100
      9 C7          -3.5440     0.0360    -2.0070 c3         1 SYR       0.150900
     10 C1           0.9630     0.0460     0.4850 ca         1 SYR      -0.134000
     11 C2           1.2560     0.0720    -0.8960 ca         1 SYR       0.084100
     12 O5           2.5560     0.0950    -1.3770 os         1 SYR      -0.343100
     13 C9           3.7030     0.0940    -0.5070 c3         1 SYR       0.150900
     14 C3           0.2060     0.0760    -1.8360 ca         1 SYR       0.114100
     15 O1           0.5140     0.1020    -3.1730 oh         1 SYR      -0.508100
     16 H101         1.1400    -0.0310     5.1890 h1         1 SYR       0.048367
     17 H102        -0.3910     0.8470     4.9890 h1         1 SYR       0.048367
     18 H103        -0.3710    -0.9350     4.9600 h1         1 SYR       0.048367
     19 H5          -2.4490     0.0100     0.3340 ha         1 SYR       0.140000
     20 H7C1        -4.1610     0.0440    -2.9150 h1         1 SYR       0.043533
     21 H7C2        -3.7910    -0.8690    -1.4380 h1         1 SYR       0.043533
     22 H7C3        -3.8110     0.9160    -1.4080 h1         1 SYR       0.043533
     23 H1           1.7690     0.0430     1.2130 ha         1 SYR       0.140000
     24 H9C1         4.6270     0.1150    -1.0980 h1         1 SYR       0.043533
     25 H9C2         3.6980     0.9760     0.1460 h1         1 SYR       0.043533
     26 H9C3         3.7190    -0.8090     0.1170 h1         1 SYR       0.043533
     27 HA           1.4950     0.1140    -3.2370 ho         1 SYR       0.479000
@<TRIPOS>BOND
     1     1     2 2   
     2     2     3 1   
     3     2     5 1   
     4     3     4 1   
     5     4    16 1   
     6     4    17 1   
     7     4    18 1   
     8     5     6 ar  
     9     5    10 ar  
    10     6     7 ar  
    11     6    19 1   
    12     7     8 1   
    13     7    14 ar  
    14     8     9 1   
    15     9    20 1   
    16     9    21 1   
    17     9    22 1   
    18    10    11 ar  
    19    10    23 1   
    20    11    12 1   
    21    11    14 ar  
    22    12    13 1   
    23    13    24 1   
    24    13    25 1   
    25    13    26 1   
    26    14    15 1   
    27    15    27 1   
@<TRIPOS>SUBSTRUCTURE
     1 SYR         1 TEMP              0 ****  ****    0 ROOT
