@<TRIPOS>MOLECULE
SYS
   20    19     1     0     0
SMALL
No Charge or Current Charge


@<TRIPOS>ATOM
      1 N            2.1900     1.7270    -0.3400 n8         1 SYS      -0.994200
      2 CA           2.1850     0.3250     0.2400 c3         1 SYS       0.017500
      3 CB           0.9040    -0.4500    -0.1710 c3         1 SYS       0.130600
      4 SE          -0.6400     0.5000     0.2610 ss         1 SYS      -0.547000
      5 C            3.4510    -0.5710    -0.0490 c          1 SYS       0.722000
      6 O            3.7110    -0.8570    -1.2110 o          1 SYS      -0.720500
      7 HN           2.3140     1.6610    -1.3580 hn         1 SYS       0.388000
      8 HNA          1.2370     2.1000    -0.2400 hn         1 SYS       0.388000
      9 HA           2.1390     0.4380     1.3320 h1         1 SYS       0.063700
     10 HB           0.9160    -0.6420    -1.2520 h1         1 SYS       0.056700
     11 HBA          0.8840    -1.4190     0.3460 h1         1 SYS       0.056700
     12 O2           4.1560    -0.9030     0.8960 o          1 SYS      -0.720500
     13 C4          -1.9390    -0.7080    -0.3430 c3         1 SYS       0.013600
     14 C5          -3.4120    -0.2630    -0.1540 c          1 SYS       0.609100
     15 N2          -4.3480    -1.1410    -0.5840 nt         1 SYS      -0.621000
     16 O3          -3.7610     0.7970     0.3430 o          1 SYS      -0.583100
     17 H6          -1.7860    -0.8940    -1.4140 h1         1 SYS       0.065200
     18 H7          -1.8130    -1.6630     0.1830 h1         1 SYS       0.065200
     19 H8          -4.0690    -2.0200    -0.9960 hn         1 SYS       0.305500
     20 H9          -5.3250    -0.9070    -0.4870 hn         1 SYS       0.305500
@<TRIPOS>BOND
     1     1     2 1   
     2     1     7 1   
     3     1     8 1   
     4     2     3 1   
     5     2     5 1   
     6     2     9 1   
     7     3     4 1   
     8     3    10 1   
     9     3    11 1   
    10     4    13 1   
    11     5     6 1   
    12     5    12 1   
    13    13    14 1   
    14    13    17 1   
    15    13    18 1   
    16    14    15 1   
    17    14    16 2   
    18    15    19 1   
    19    15    20 1   
@<TRIPOS>SUBSTRUCTURE
     1 SYS         1 TEMP              0 ****  ****    0 ROOT
