@<TRIPOS>MOLECULE
SYS
   20    19     1     0     0
SMALL
bcc


@<TRIPOS>ATOM
      1 N            2.1680     1.6220    -0.5500 n8         1 SYS      -0.883800
      2 CA           2.1440     0.4060     0.2400 c3         1 SYS       0.017500
      3 CB           0.9220    -0.4940     0.0070 c3         1 SYS       0.082700
      4 SE          -0.7320     0.3820     0.6180 ss         1 SYS      -0.451200
      5 C            3.4040    -0.4570    -0.0450 c          1 SYS       0.932600
      6 O            3.9820    -0.2730    -1.1320 o          1 SYS      -0.825800
      7 HN           2.4530     1.3820    -1.4910 hn         1 SYS       0.332800
      8 HNA          1.2430     2.0310    -0.6160 hn         1 SYS       0.332800
      9 HA           2.1730     0.6730     1.3030 h1         1 SYS       0.063700
     10 HB           0.8190    -0.7140    -1.0600 h1         1 SYS       0.056700
     11 HBA          1.0360    -1.4370     0.5430 h1         1 SYS       0.056700
     12 O2           3.7030    -1.2890     0.8330 o          1 SYS      -0.825800
     13 C4          -1.9660    -0.7510    -0.3760 c3         1 SYS      -0.034300
     14 C5          -3.3840    -0.3060    -0.0850 c          1 SYS       0.676100
     15 N2          -4.3320    -1.0930    -0.6080 nt         1 SYS      -0.688000
     16 O3          -3.6240     0.6980     0.5690 o          1 SYS      -0.583100
     17 H6          -1.7690    -0.6710    -1.4490 h1         1 SYS       0.065200
     18 H7          -1.8310    -1.8000    -0.1010 h1         1 SYS       0.065200
     19 H8          -4.1100    -1.9270    -1.1230 hn         1 SYS       0.305500
     20 H9          -5.3060    -0.8740    -0.4740 hn         1 SYS       0.305500
@<TRIPOS>BOND
     1     1     2 1   
     2     1     7 1   
     3     1     8 1   
     4     2     3 1   
     5     2     5 1   
     6     2     9 1   
     7     3     4 1   
     8     3    10 1   
     9     3    11 1   
    10     4    13 1   
    11     5     6 1   
    12     5    12 1   
    13    13    14 1   
    14    13    17 1   
    15    13    18 1   
    16    14    15 1   
    17    14    16 2   
    18    15    19 1   
    19    15    20 1   
@<TRIPOS>SUBSTRUCTURE
     1 SYS         1 TEMP              0 ****  ****    0 ROOT
