@<TRIPOS>MOLECULE
SYT
   45    50     1     0     0
SMALL
No Charge or Current Charge


@<TRIPOS>ATOM
      1 C07         -0.3520     2.4030    -1.3850 c3         1 SYT       0.078900
      2 N7           0.2950     1.3370    -0.4810 n4         1 SYT      -0.494000
      3 C8           1.7920     1.2350    -0.8620 c6         1 SYT       0.169900
      4 C8A          2.5060     0.0420    -0.2370 ca         1 SYT      -0.138300
      5 C9           3.8990     0.0610    -0.0880 ca         1 SYT       0.080100
      6 O18          4.7210     1.0810    -0.4480 os         1 SYT      -0.348100
      7 C15          6.0440     0.6010    -0.0130 c5         1 SYT       0.371600
      8 O19          5.9240    -0.7790     0.4820 os         1 SYT      -0.320100
      9 C10          4.5840    -0.9970     0.4400 ca         1 SYT       0.076100
     10 C11          3.9290    -2.1590     0.8590 ca         1 SYT      -0.060000
     11 C12          2.5250    -2.2110     0.7280 ca         1 SYT      -0.087000
     12 C12A         1.8100    -1.1180     0.1770 ca         1 SYT      -0.088300
     13 C13          0.2850    -1.1950     0.0860 c6         1 SYT      -0.046100
     14 C13A        -0.3850    -0.0360    -0.6990 c6         1 SYT       0.187600
     15 C13B        -1.8630     0.0370    -0.3020 ca         1 SYT      -0.150300
     16 C4A         -2.2970     0.9030     0.7440 ca         1 SYT      -0.077300
     17 C5          -1.3260     1.8620     1.4520 c6         1 SYT      -0.052100
     18 C6           0.1500     1.7190     1.0110 c6         1 SYT       0.104600
     19 C1          -2.7930    -0.7960    -0.9650 ca         1 SYT      -0.079000
     20 C2          -4.1330    -0.7430    -0.5670 ca         1 SYT       0.076100
     21 O16         -5.1500    -1.4670    -1.1010 os         1 SYT      -0.326100
     22 C14         -6.3030    -1.0580    -0.2810 c5         1 SYT       0.369600
     23 O17         -5.8860    -0.0040     0.6590 os         1 SYT      -0.323100
     24 C3          -4.5510     0.0860     0.4340 ca         1 SYT       0.096100
     25 C4          -3.6620     0.9280     1.1100 ca         1 SYT      -0.092000
     26 H1          -0.2280     2.1130    -2.4300 hx         1 SYT       0.094700
     27 H2          -1.4160     2.4770    -1.1520 hx         1 SYT       0.094700
     28 H3           0.1310     3.3660    -1.2090 hx         1 SYT       0.094700
     29 H4           1.8370     1.1620    -1.9520 hx         1 SYT       0.099700
     30 H5           2.2680     2.1750    -0.5670 hx         1 SYT       0.099700
     31 H6           6.7440     0.6320    -0.8560 h2         1 SYT       0.085200
     32 H7           4.4880    -2.9930     1.2760 ha         1 SYT       0.159000
     33 H8           1.9910    -3.1010     1.0560 ha         1 SYT       0.138000
     34 H9          -0.0160    -2.1500    -0.3660 hc         1 SYT       0.089200
     35 H10         -0.1140    -1.2120     1.1080 hc         1 SYT       0.089200
     36 H11         -0.2960    -0.2300    -1.7730 hx         1 SYT       0.099700
     37 H12         -1.6480     2.8920     1.2510 hc         1 SYT       0.086700
     38 H13         -1.3910     1.7340     2.5410 hc         1 SYT       0.086700
     39 H14          0.6460     0.9250     1.5780 hx         1 SYT       0.098200
     40 H15          0.7070     2.6460     1.1750 hx         1 SYT       0.098200
     41 H16         -2.4840    -1.4680    -1.7630 ha         1 SYT       0.147000
     42 H17         -7.1000    -0.6770    -0.9310 h2         1 SYT       0.086200
     43 H18         -4.0230     1.5890     1.8950 ha         1 SYT       0.152000
     44 H19          6.4080     1.2430     0.7980 h2         1 SYT       0.085200
     45 H20         -6.6660    -1.9230     0.2860 h2         1 SYT       0.086200
@<TRIPOS>BOND
     1     1     2 1   
     2     1    26 1   
     3     1    27 1   
     4     1    28 1   
     5     2     3 1   
     6     2    14 1   
     7     2    18 1   
     8     3     4 1   
     9     3    29 1   
    10     3    30 1   
    11     4     5 ar  
    12     4    12 ar  
    13     5     6 1   
    14     5     9 ar  
    15     6     7 1   
    16     7     8 1   
    17     7    31 1   
    18     7    44 1   
    19     8     9 1   
    20     9    10 ar  
    21    10    11 ar  
    22    10    32 1   
    23    11    12 ar  
    24    11    33 1   
    25    12    13 1   
    26    13    14 1   
    27    13    34 1   
    28    13    35 1   
    29    14    15 1   
    30    14    36 1   
    31    15    16 ar  
    32    15    19 ar  
    33    16    17 1   
    34    16    25 ar  
    35    17    18 1   
    36    17    37 1   
    37    17    38 1   
    38    18    39 1   
    39    18    40 1   
    40    19    20 ar  
    41    19    41 1   
    42    20    21 1   
    43    20    24 ar  
    44    21    22 1   
    45    22    23 1   
    46    22    42 1   
    47    22    45 1   
    48    23    24 1   
    49    24    25 ar  
    50    25    43 1   
@<TRIPOS>SUBSTRUCTURE
     1 SYT         1 TEMP              0 ****  ****    0 ROOT
