@<TRIPOS>MOLECULE
SYT
   45    50     1     0     0
SMALL
bcc


@<TRIPOS>ATOM
      1 C07         -0.3360     2.3130    -1.3470 c3         1 SYT       0.107100
      2 N7           0.2830     1.2920    -0.4520 n4         1 SYT      -0.606800
      3 C8           1.7250     1.2080    -0.8400 c6         1 SYT       0.198100
      4 C8A          2.4440     0.0560    -0.2200 ca         1 SYT      -0.138300
      5 C9           3.8170     0.0640    -0.1230 ca         1 SYT       0.080100
      6 O18          4.6710     1.0420    -0.5010 os         1 SYT      -0.324900
      7 C15          5.9530     0.6450    -0.0220 c5         1 SYT       0.325200
      8 O19          5.8540    -0.7300     0.3210 os         1 SYT      -0.296900
      9 C10          4.5300    -1.0120     0.3720 ca         1 SYT       0.076100
     10 C11          3.9030    -2.1590     0.7940 ca         1 SYT      -0.078000
     11 C12          2.5090    -2.1800     0.7040 ca         1 SYT      -0.105000
     12 C12A         1.7860    -1.1050     0.2060 ca         1 SYT      -0.088300
     13 C13          0.2850    -1.1380     0.1980 c6         1 SYT      -0.046100
     14 C13A        -0.3820    -0.0510    -0.6440 c6         1 SYT       0.215800
     15 C13B        -1.8390     0.0370    -0.2840 ca         1 SYT      -0.150300
     16 C4A         -2.2520     0.8650     0.7500 ca         1 SYT      -0.077300
     17 C5          -1.3060     1.8380     1.4040 c6         1 SYT      -0.052100
     18 C6           0.1490     1.7060     0.9830 c6         1 SYT       0.132800
     19 C1          -2.7360    -0.8080    -0.9560 ca         1 SYT      -0.097000
     20 C2          -4.0400    -0.7860    -0.5420 ca         1 SYT       0.076100
     21 O16         -5.0890    -1.5090    -0.9970 os         1 SYT      -0.302900
     22 C14         -6.2440    -0.9830    -0.3540 c5         1 SYT       0.323200
     23 O17         -5.7840    -0.1450     0.7000 os         1 SYT      -0.299900
     24 C3          -4.4620     0.0400     0.4910 ca         1 SYT       0.096100
     25 C4          -3.6000     0.8770     1.1470 ca         1 SYT      -0.110000
     26 H1          -0.2850     1.9550    -2.3720 hx         1 SYT       0.094700
     27 H2          -1.3720     2.4860    -1.0790 hx         1 SYT       0.094700
     28 H3           0.2270     3.2380    -1.2560 hx         1 SYT       0.094700
     29 H4           1.7520     1.1300    -1.9290 hx         1 SYT       0.099700
     30 H5           2.1790     2.1610    -0.5680 hx         1 SYT       0.099700
     31 H6           6.6960     0.7800    -0.8080 h2         1 SYT       0.085200
     32 H7           4.4540    -3.0070     1.1760 ha         1 SYT       0.177000
     33 H8           1.9770    -3.0610     1.0400 ha         1 SYT       0.156000
     34 H9          -0.0730    -2.0910    -0.1940 hc         1 SYT       0.089200
     35 H10         -0.0880    -1.0840     1.2240 hc         1 SYT       0.089200
     36 H11         -0.2610    -0.2810    -1.7060 hx         1 SYT       0.099700
     37 H12         -1.6560     2.8530     1.2020 hc         1 SYT       0.086700
     38 H13         -1.3390     1.7240     2.4890 hc         1 SYT       0.086700
     39 H14          0.6810     0.9730     1.5860 hx         1 SYT       0.098200
     40 H15          0.6690     2.6550     1.0940 hx         1 SYT       0.098200
     41 H16         -2.4040    -1.4460    -1.7640 ha         1 SYT       0.165000
     42 H17         -6.8290    -0.3940    -1.0670 h2         1 SYT       0.086200
     43 H18         -3.9380     1.5250     1.9450 ha         1 SYT       0.170000
     44 H19          6.2150     1.2340     0.8630 h2         1 SYT       0.085200
     45 H20         -6.8420    -1.7960     0.0540 h2         1 SYT       0.086200
@<TRIPOS>BOND
     1     1     2 1   
     2     1    26 1   
     3     1    27 1   
     4     1    28 1   
     5     2     3 1   
     6     2    14 1   
     7     2    18 1   
     8     3     4 1   
     9     3    29 1   
    10     3    30 1   
    11     4     5 ar  
    12     4    12 ar  
    13     5     6 1   
    14     5     9 ar  
    15     6     7 1   
    16     7     8 1   
    17     7    31 1   
    18     7    44 1   
    19     8     9 1   
    20     9    10 ar  
    21    10    11 ar  
    22    10    32 1   
    23    11    12 ar  
    24    11    33 1   
    25    12    13 1   
    26    13    14 1   
    27    13    34 1   
    28    13    35 1   
    29    14    15 1   
    30    14    36 1   
    31    15    16 ar  
    32    15    19 ar  
    33    16    17 1   
    34    16    25 ar  
    35    17    18 1   
    36    17    37 1   
    37    17    38 1   
    38    18    39 1   
    39    18    40 1   
    40    19    20 ar  
    41    19    41 1   
    42    20    21 1   
    43    20    24 ar  
    44    21    22 1   
    45    22    23 1   
    46    22    42 1   
    47    22    45 1   
    48    23    24 1   
    49    24    25 ar  
    50    25    43 1   
@<TRIPOS>SUBSTRUCTURE
     1 SYT         1 TEMP              0 ****  ****    0 ROOT
