@<TRIPOS>MOLECULE
SYU
   33    34     1     0     0
SMALL
No Charge or Current Charge


@<TRIPOS>ATOM
      1 C13         17.0040    -0.6660    -4.2610 c3         1 SYU       0.229800
      2 C12         19.7070    -8.6080    -3.5340 c3         1 SYU       0.362300
      3 C10         20.3870    -6.4100    -2.4410 ca         1 SYU      -0.014000
      4 C01         21.5530    -3.0140    -3.9060 c3         1 SYU       0.131300
      5 N01         19.3850    -0.1680    -3.5950 ns         1 SYU      -0.397600
      6 O01         16.7880     0.7180    -3.9410 oh         1 SYU      -0.652000
      7 C02         18.4500    -1.0560    -4.0500 cc         1 SYU      -0.075600
      8 N02         20.4770    -2.0030    -3.8620 n          1 SYU      -0.210000
      9 C03         19.1420    -2.2190    -4.2210 cd         1 SYU      -0.160400
     10 C04         20.1800    -7.1530    -3.6210 ca         1 SYU      -0.204300
     11 C05         20.6330    -0.6840    -3.4610 cs         1 SYU       0.378400
     12 C06         20.8290    -5.0650    -2.4800 ca         1 SYU      -0.198300
     13 C07         21.0770    -4.4630    -3.7470 ca         1 SYU      -0.017300
     14 C08         20.8770    -5.2160    -4.9200 ca         1 SYU      -0.110000
     15 C09         20.4360    -6.5440    -4.8640 ca         1 SYU      -0.026000
     16 F01         20.3090    -3.1600    -1.1080 f          1 SYU      -0.109333
     17 F02         20.6900    -5.0140    -0.0660 f          1 SYU      -0.109333
     18 F03         22.3340    -3.9490    -0.9820 f          1 SYU      -0.109333
     19 F13         20.7210    -9.4340    -3.1930 f          1 SYU      -0.109333
     20 F14         19.2000    -9.0670    -4.7010 f          1 SYU      -0.109333
     21 F15         18.7380    -8.7670    -2.6040 f          1 SYU      -0.109333
     22 H1          16.3720    -1.3070    -3.6310 h1         1 SYU       0.040200
     23 H2          16.7360    -0.8630    -5.3070 h1         1 SYU       0.040200
     24 H3          20.1990    -6.8970    -1.4850 ha         1 SYU       0.151000
     25 H4          22.0710    -2.9080    -4.8670 h1         1 SYU       0.106200
     26 H5          22.2950    -2.7770    -3.1360 h1         1 SYU       0.106200
     27 H6          15.8350     0.8960    -4.1020 ho         1 SYU       0.455000
     28 H7          18.8160    -3.1980    -4.5650 h4         1 SYU       0.240000
     29 H9          21.0630    -4.7650    -5.8930 ha         1 SYU       0.134000
     30 H10         20.2980    -7.0940    -5.7940 ha         1 SYU       0.137000
     31 H11         19.1800     0.8040    -3.3730 hn         1 SYU       0.490000
     32 S02         21.9960     0.1320    -2.9440 s          1 SYU      -0.635400
     33 C11         21.0390    -4.2960    -1.1580 c3         1 SYU       0.357300
@<TRIPOS>BOND
     1     1     6 1   
     2     1     7 1   
     3     1    22 1   
     4     1    23 1   
     5     2    10 1   
     6     2    19 1   
     7     2    20 1   
     8     2    21 1   
     9     3    10 ar  
    10     3    12 ar  
    11     3    24 1   
    12     4     8 1   
    13     4    13 1   
    14     4    25 1   
    15     4    26 1   
    16     5     7 1   
    17     5    11 1   
    18     5    31 1   
    19     6    27 1   
    20     7     9 2   
    21     8     9 1   
    22     8    11 1   
    23     9    28 1   
    24    10    15 ar  
    25    11    32 2   
    26    12    13 ar  
    27    12    33 1   
    28    13    14 ar  
    29    14    15 ar  
    30    14    29 1   
    31    15    30 1   
    32    16    33 1   
    33    17    33 1   
    34    18    33 1   
@<TRIPOS>SUBSTRUCTURE
     1 SYU         1 TEMP              0 ****  ****    0 ROOT
