@<TRIPOS>MOLECULE
SYU
   33    34     1     0     0
SMALL
abcg2


@<TRIPOS>ATOM
      1 C13         17.0740    -0.2170    -4.5890 c3         1 SYU       0.229800
      2 C12         20.1060    -8.4620    -4.1240 c3         1 SYU       0.362300
      3 C10         20.8590    -6.7140    -2.4930 ca         1 SYU      -0.014000
      4 C01         20.8330    -2.8900    -2.6320 c3         1 SYU       0.131300
      5 N01         19.5080    -0.6640    -5.0440 ns         1 SYU      -0.397600
      6 O01         17.2480     1.1800    -4.6360 oh         1 SYU      -0.652000
      7 C02         18.3790    -0.8470    -4.2730 cc         1 SYU      -0.075600
      8 N02         20.0700    -2.0010    -3.4680 n          1 SYU      -0.210000
      9 C03         18.7370    -1.6870    -3.2820 cd         1 SYU      -0.160400
     10 C04         20.2790    -7.0340    -3.7100 ca         1 SYU      -0.204300
     11 C05         20.5530    -1.3650    -4.5640 cs         1 SYU       0.378400
     12 C06         21.0370    -5.3870    -2.1270 ca         1 SYU      -0.198300
     13 C07         20.6330    -4.3510    -2.9810 ca         1 SYU      -0.017300
     14 C08         20.0630    -4.6980    -4.1990 ca         1 SYU      -0.110000
     15 C09         19.8830    -6.0200    -4.5670 ca         1 SYU      -0.026000
     16 F01         20.8080    -4.4730     0.0350 f          1 SYU      -0.109333
     17 F02         22.0480    -6.2110    -0.1590 f          1 SYU      -0.109333
     18 F03         22.7430    -4.3200    -0.8970 f          1 SYU      -0.109333
     19 F13         21.0220    -8.8270    -5.0310 f          1 SYU      -0.109333
     20 F14         18.9090    -8.6720    -4.6840 f          1 SYU      -0.109333
     21 F15         20.2160    -9.3060    -3.0960 f          1 SYU      -0.109333
     22 H1          16.3540    -0.5280    -3.8230 h1         1 SYU       0.040200
     23 H2          16.7090    -0.6060    -5.5470 h1         1 SYU       0.040200
     24 H3          21.1690    -7.5020    -1.8240 ha         1 SYU       0.151000
     25 H4          21.8840    -2.6210    -2.7560 h1         1 SYU       0.106200
     26 H5          20.5580    -2.6840    -1.6000 h1         1 SYU       0.106200
     27 H6          16.4590     1.5650    -5.0300 ho         1 SYU       0.455000
     28 H7          18.1620    -2.0870    -2.4640 h4         1 SYU       0.240000
     29 H9          19.7380    -3.9310    -4.8870 ha         1 SYU       0.134000
     30 H10         19.4300    -6.2400    -5.5250 ha         1 SYU       0.137000
     31 H11         19.5740    -0.0730    -5.8590 hn         1 SYU       0.490000
     32 S02         22.1090    -1.4410    -5.1880 s          1 SYU      -0.635400
     33 C11         21.6600    -5.1010    -0.7880 c3         1 SYU       0.357300
@<TRIPOS>BOND
     1     1     6 1   
     2     1     7 1   
     3     1    22 1   
     4     1    23 1   
     5     2    10 1   
     6     2    19 1   
     7     2    20 1   
     8     2    21 1   
     9     3    10 ar  
    10     3    12 ar  
    11     3    24 1   
    12     4     8 1   
    13     4    13 1   
    14     4    25 1   
    15     4    26 1   
    16     5     7 1   
    17     5    11 1   
    18     5    31 1   
    19     6    27 1   
    20     7     9 2   
    21     8     9 1   
    22     8    11 1   
    23     9    28 1   
    24    10    15 ar  
    25    11    32 2   
    26    12    13 ar  
    27    12    33 1   
    28    13    14 ar  
    29    14    15 ar  
    30    14    29 1   
    31    15    30 1   
    32    16    33 1   
    33    17    33 1   
    34    18    33 1   
@<TRIPOS>SUBSTRUCTURE
     1 SYU         1 TEMP              0 ****  ****    0 ROOT
