@<TRIPOS>MOLECULE
SYV
   20    21     1     0     0
SMALL
bcc


@<TRIPOS>ATOM
      1 C4          28.6310    16.1220    37.8080 ca         1 SYV       0.149600
      2 C5          29.7780    16.7730    38.2880 ca         1 SYV      -0.166000
      3 C6          29.5880    17.7670    39.2130 ca         1 SYV       0.093100
      4 N1          28.7490    15.1490    36.8290 nv         1 SYV      -0.811200
      5 C7          29.9080    19.3990    40.6720 c          1 SYV       0.829600
      6 O1          30.5090    20.1980    41.3420 o          1 SYV      -0.588500
      7 N           28.5730    19.1680    40.5900 n          1 SYV      -0.376000
      8 C           27.5600    19.8810    41.3220 c3         1 SYV       0.109300
      9 O           30.5350    18.5310    39.8230 os         1 SYV      -0.287200
     10 C1          28.3420    18.1480    39.6790 ca         1 SYV      -0.056400
     11 C3          27.3690    16.5030    38.2810 ca         1 SYV      -0.189000
     12 C2          27.2070    17.5200    39.2180 ca         1 SYV      -0.079000
     13 H1          30.7680    16.5060    37.9430 ha         1 SYV       0.156000
     14 H2          29.6230    14.6500    36.8200 hn         1 SYV       0.390300
     15 H3          27.9780    14.5050    36.7730 hn         1 SYV       0.390300
     16 H4          28.0330    20.5910    41.9930 h1         1 SYV       0.051700
     17 H5          26.9070    20.4260    40.6410 h1         1 SYV       0.051700
     18 H6          26.9590    19.1910    41.9120 h1         1 SYV       0.051700
     19 H7          26.4890    15.9940    37.9110 ha         1 SYV       0.137000
     20 H8          26.2190    17.7920    39.5640 ha         1 SYV       0.143000
@<TRIPOS>BOND
     1     1     2 ar  
     2     1     4 1   
     3     1    11 ar  
     4     2     3 ar  
     5     2    13 1   
     6     3     9 1   
     7     3    10 ar  
     8     4    14 1   
     9     4    15 1   
    10     5     6 2   
    11     5     7 1   
    12     5     9 1   
    13     7     8 1   
    14     7    10 1   
    15     8    16 1   
    16     8    17 1   
    17     8    18 1   
    18    10    12 ar  
    19    11    12 ar  
    20    11    19 1   
    21    12    20 1   
@<TRIPOS>SUBSTRUCTURE
     1 SYV         1 TEMP              0 ****  ****    0 ROOT
