@<TRIPOS>MOLECULE
SYV
   20    21     1     0     0
SMALL
No Charge or Current Charge


@<TRIPOS>ATOM
      1 C4          28.6230    16.0890    37.8150 ca         1 SYV       0.288000
      2 C5          29.7700    16.7890    38.2410 ca         1 SYV      -0.148000
      3 C6          29.5880    17.8200    39.1660 ca         1 SYV       0.093100
      4 N1          28.7430    15.0710    36.9070 nv         1 SYV      -1.060000
      5 C7          29.9640    19.4020    40.7270 c          1 SYV       0.687100
      6 O1          30.5280    20.2160    41.4450 o          1 SYV      -0.513000
      7 N           28.5850    19.1280    40.6450 n          1 SYV      -0.309000
      8 C           27.5490    19.9560    41.2850 c3         1 SYV       0.109300
      9 O           30.5470    18.5630    39.8010 os         1 SYV      -0.287200
     10 C1          28.3430    18.1770    39.6320 ca         1 SYV      -0.056400
     11 C3          27.3500    16.4080    38.3460 ca         1 SYV      -0.171000
     12 C2          27.1990    17.4440    39.2970 ca         1 SYV      -0.061000
     13 H1          30.7620    16.5290    37.8840 ha         1 SYV       0.138000
     14 H2          29.6640    14.7450    36.6200 hn         1 SYV       0.445500
     15 H3          27.9420    14.4780    36.6950 hn         1 SYV       0.445500
     16 H4          27.9400    20.4070    42.2060 h1         1 SYV       0.051700
     17 H5          27.2380    20.7520    40.5970 h1         1 SYV       0.051700
     18 H6          26.6800    19.3350    41.5350 h1         1 SYV       0.051700
     19 H7          26.4770    15.8390    38.0380 ha         1 SYV       0.119000
     20 H8          26.2320    17.6660    39.7410 ha         1 SYV       0.125000
@<TRIPOS>BOND
     1     1     2 ar  
     2     1     4 1   
     3     1    11 ar  
     4     2     3 ar  
     5     2    13 1   
     6     3     9 1   
     7     3    10 ar  
     8     4    14 1   
     9     4    15 1   
    10     5     6 2   
    11     5     7 1   
    12     5     9 1   
    13     7     8 1   
    14     7    10 1   
    15     8    16 1   
    16     8    17 1   
    17     8    18 1   
    18    10    12 ar  
    19    11    12 ar  
    20    11    19 1   
    21    12    20 1   
@<TRIPOS>SUBSTRUCTURE
     1 SYV         1 TEMP              0 ****  ****    0 ROOT
