@<TRIPOS>MOLECULE
SYW
   54    58     1     0     0
SMALL
abcg2


@<TRIPOS>ATOM
      1 C23        -10.5900     8.9840   -22.8090 ca         1 SYW      -0.185600
      2 C29        -11.1440    13.5030   -23.0980 cc         1 SYW      -0.158100
      3 C28        -13.1180    13.1530   -24.6040 c3         1 SYW       0.062900
      4 C26        -11.6890    11.4020   -23.5580 ca         1 SYW      -0.036200
      5 C25        -12.2830    10.2320   -24.0290 ca         1 SYW      -0.131000
      6 C11        -10.9630     4.3110   -17.2430 ca         1 SYW      -0.308500
      7 C20        -11.3700     5.3730   -16.4320 ca         1 SYW       0.016000
      8 C21         -9.9300     7.6780   -22.5160 c          1 SYW       0.623700
      9 C12         -9.8660     3.5150   -16.9320 ca         1 SYW       0.002000
     10 C16         -9.7990     6.3790   -13.4140 c          1 SYW       0.688100
     11 C14         -9.5040     4.8080   -14.9890 ca         1 SYW       0.045600
     12 C13         -9.1110     3.7550   -15.7890 ca         1 SYW      -0.133000
     13 C02        -10.0400     4.8710   -20.5170 c6         1 SYW       0.204500
     14 C03        -10.2050     5.3170   -21.9670 c6         1 SYW       0.094000
     15 N04        -10.7130     6.6710   -22.0570 n          1 SYW      -0.410800
     16 C05        -11.9850     6.8450   -21.3840 c6         1 SYW       0.102000
     17 C06        -11.8830     6.4100   -19.9270 c6         1 SYW       0.190800
     18 N07        -11.3480     5.0550   -19.8740 n3         1 SYW      -0.766500
     19 S08        -11.8640     3.9940   -18.7360 sy         1 SYW       1.184600
     20 O09        -11.4870     2.6660   -19.1920 o          1 SYW      -0.536500
     21 O10        -13.2610     4.2960   -18.4740 o          1 SYW      -0.536500
     22 N15         -9.0270     5.3270   -13.8110 ns         1 SYW      -0.522600
     23 O17         -9.7040     7.0780   -12.4460 o          1 SYW      -0.490000
     24 O18        -10.7770     6.5370   -14.3550 os         1 SYW      -0.283200
     25 C19        -10.6070     5.5890   -15.3150 ca         1 SYW       0.027100
     26 O22         -8.7360     7.5320   -22.7400 o          1 SYW      -0.595100
     27 C24        -11.7300     9.0320   -23.6360 ca         1 SYW      -0.072000
     28 N27        -12.0260    12.7040   -23.7750 na         1 SYW      -0.085700
     29 C30        -10.2260    12.7410   -22.4360 cd         1 SYW      -0.230200
     30 C31        -10.5520    11.3800   -22.7170 ca         1 SYW      -0.108800
     31 C32         -9.9930    10.1510   -22.3630 ca         1 SYW      -0.007000
     32 H1         -11.2430    14.5760   -23.1440 h4         1 SYW       0.213000
     33 H2         -13.1760    14.2380   -24.5610 h1         1 SYW       0.050700
     34 H3         -12.9690    12.8560   -25.6420 h1         1 SYW       0.050700
     35 H4         -14.0650    12.7420   -24.2550 h1         1 SYW       0.050700
     36 H5         -13.1460    10.2550   -24.6830 ha         1 SYW       0.117000
     37 H6         -12.2330     5.9860   -16.6570 ha         1 SYW       0.154000
     38 H7          -9.5860     2.6960   -17.5790 ha         1 SYW       0.146000
     39 H8          -8.2610     3.1360   -15.5420 ha         1 SYW       0.134000
     40 H12         -9.8240     3.8030   -20.5400 h1         1 SYW       0.083700
     41 H13        -10.9180     4.6500   -22.4620 h1         1 SYW       0.070700
     42 H14         -9.2560     5.2420   -22.4920 h1         1 SYW       0.070700
     43 H15        -12.2990     7.8850   -21.4150 h1         1 SYW       0.064700
     44 H16        -12.7500     6.2460   -21.8870 h1         1 SYW       0.064700
     45 H17        -11.2510     7.1090   -19.3690 h1         1 SYW       0.061700
     46 H18        -12.8770     6.4350   -19.4880 h1         1 SYW       0.061700
     47 H19         -8.2340     4.9930   -13.2830 hn         1 SYW       0.481000
     48 H20        -12.1710     8.1090   -23.9910 ha         1 SYW       0.117000
     49 H21         -9.4170    13.1080   -21.8240 ha         1 SYW       0.210000
     50 H22         -9.1070    10.1110   -21.7400 ha         1 SYW       0.128000
     51 C01         -8.9020     5.5950   -19.8080 c3         1 SYW      -0.116100
     52 H9          -8.7880     5.2490   -18.7810 hc         1 SYW       0.048033
     53 H10         -7.9660     5.3960   -20.3280 hc         1 SYW       0.048033
     54 H11         -9.0430     6.6750   -19.7830 hc         1 SYW       0.048033
@<TRIPOS>BOND
     1     1     8 1   
     2     1    27 ar  
     3     1    31 ar  
     4     2    28 1   
     5     2    29 2   
     6     2    32 1   
     7     3    28 1   
     8     3    33 1   
     9     3    34 1   
    10     3    35 1   
    11     4     5 ar  
    12     4    28 1   
    13     4    30 ar  
    14     5    27 ar  
    15     5    36 1   
    16     6     7 ar  
    17     6     9 ar  
    18     6    19 1   
    19     7    25 ar  
    20     7    37 1   
    21     8    15 1   
    22     8    26 2   
    23     9    12 ar  
    24     9    38 1   
    25    10    22 1   
    26    10    23 2   
    27    10    24 1   
    28    11    12 ar  
    29    11    22 1   
    30    11    25 ar  
    31    12    39 1   
    32    13    14 1   
    33    13    18 1   
    34    13    40 1   
    35    13    51 1   
    36    14    15 1   
    37    14    41 1   
    38    14    42 1   
    39    15    16 1   
    40    16    17 1   
    41    16    43 1   
    42    16    44 1   
    43    17    18 1   
    44    17    45 1   
    45    17    46 1   
    46    18    19 1   
    47    19    20 2   
    48    19    21 2   
    49    22    47 1   
    50    24    25 1   
    51    27    48 1   
    52    29    30 1   
    53    29    49 1   
    54    30    31 ar  
    55    31    50 1   
    56    51    52 1   
    57    51    53 1   
    58    51    54 1   
@<TRIPOS>SUBSTRUCTURE
     1 SYW         1 TEMP              0 ****  ****    0 ROOT
