@<TRIPOS>MOLECULE
SYW
   54    58     1     0     0
SMALL
No Charge or Current Charge


@<TRIPOS>ATOM
      1 C23        -10.5830     8.7160   -22.8630 ca         1 SYW      -0.185600
      2 C29        -10.1310    13.3860   -22.9380 cc         1 SYW      -0.158100
      3 C28        -12.7050    13.5040   -23.1010 c3         1 SYW       0.062900
      4 C26        -11.3260    11.4180   -22.9730 ca         1 SYW      -0.036200
      5 C25        -12.3360    10.4480   -23.0310 ca         1 SYW      -0.131000
      6 C11        -10.8070     4.4760   -17.3100 ca         1 SYW      -0.308500
      7 C20        -11.8770     4.9300   -16.4940 ca         1 SYW       0.016000
      8 C21        -10.1510     7.2670   -22.8340 c          1 SYW       0.623700
      9 C12         -9.4690     4.8970   -17.0520 ca         1 SYW       0.002000
     10 C16        -11.6540     7.1830   -13.6620 c          1 SYW       0.688100
     11 C14        -10.2660     6.2030   -15.2110 ca         1 SYW       0.045600
     12 C13         -9.1850     5.7790   -15.9840 ca         1 SYW      -0.133000
     13 C02        -10.2420     4.1500   -21.1720 c6         1 SYW       0.204500
     14 C03        -10.7880     4.8420   -22.4560 c6         1 SYW       0.094000
     15 N04        -11.0220     6.3060   -22.2730 n          1 SYW      -0.410800
     16 C05        -11.8770     6.5980   -21.0820 c6         1 SYW       0.102000
     17 C06        -11.4090     5.8630   -19.7940 c6         1 SYW       0.190800
     18 N07        -11.1750     4.4120   -20.0370 n3         1 SYW      -0.766500
     19 S08        -11.1460     3.3630   -18.6850 sy         1 SYW       1.184600
     20 O09         -9.9710     2.4990   -18.8410 o          1 SYW      -0.536500
     21 O10        -12.4980     2.8060   -18.5660 o          1 SYW      -0.536500
     22 N15        -10.3690     7.0450   -14.1140 ns         1 SYW      -0.522600
     23 O17        -12.0540     7.8510   -12.7230 o          1 SYW      -0.490000
     24 O18        -12.3870     6.3870   -14.5220 os         1 SYW      -0.283200
     25 C19        -11.5560     5.8010   -15.4490 ca         1 SYW       0.027100
     26 O22         -9.1030     6.9280   -23.3700 o          1 SYW      -0.595100
     27 C24        -11.9540     9.0890   -22.9830 ca         1 SYW      -0.072000
     28 N27        -11.4140    12.8050   -23.0070 na         1 SYW      -0.085700
     29 C30         -9.2700    12.2990   -22.8630 cd         1 SYW      -0.230200
     30 C31        -10.0100    11.0620   -22.8840 ca         1 SYW      -0.108800
     31 C32         -9.5910     9.7270   -22.8350 ca         1 SYW      -0.007000
     32 H1          -9.9520    14.4570   -22.9480 h4         1 SYW       0.213000
     33 H2         -12.5410    14.5880   -23.1030 h1         1 SYW       0.050700
     34 H3         -13.2130    13.2140   -24.0290 h1         1 SYW       0.050700
     35 H4         -13.3320    13.2350   -22.2420 h1         1 SYW       0.050700
     36 H5         -13.3830    10.7260   -23.1190 ha         1 SYW       0.117000
     37 H6         -12.9080     4.6260   -16.6660 ha         1 SYW       0.154000
     38 H7          -8.6510     4.5450   -17.6780 ha         1 SYW       0.146000
     39 H8          -8.1710     6.1100   -15.7760 ha         1 SYW       0.134000
     40 H12        -10.2160     3.0700   -21.3860 h1         1 SYW       0.083700
     41 H13        -11.7440     4.3710   -22.7230 h1         1 SYW       0.070700
     42 H14        -10.1040     4.6570   -23.2950 h1         1 SYW       0.070700
     43 H15        -11.9000     7.6720   -20.8620 h1         1 SYW       0.064700
     44 H16        -12.9070     6.2890   -21.3100 h1         1 SYW       0.064700
     45 H17        -10.4970     6.3460   -19.4130 h1         1 SYW       0.061700
     46 H18        -12.1890     6.0090   -19.0340 h1         1 SYW       0.061700
     47 H19         -9.5880     7.5180   -13.6730 hn         1 SYW       0.481000
     48 H20        -12.7270     8.3270   -23.0570 ha         1 SYW       0.117000
     49 H21         -8.1860    12.3770   -22.7970 ha         1 SYW       0.210000
     50 H22         -8.5330     9.4820   -22.7670 ha         1 SYW       0.128000
     51 C01         -8.7740     4.5970   -20.8970 c3         1 SYW      -0.116100
     52 H9          -8.3290     4.0590   -20.0540 hc         1 SYW       0.048033
     53 H10         -8.1410     4.3960   -21.7700 hc         1 SYW       0.048033
     54 H11         -8.7010     5.6680   -20.6830 hc         1 SYW       0.048033
@<TRIPOS>BOND
     1     1     8 1   
     2     1    27 ar  
     3     1    31 ar  
     4     2    28 1   
     5     2    29 2   
     6     2    32 1   
     7     3    28 1   
     8     3    33 1   
     9     3    34 1   
    10     3    35 1   
    11     4     5 ar  
    12     4    28 1   
    13     4    30 ar  
    14     5    27 ar  
    15     5    36 1   
    16     6     7 ar  
    17     6     9 ar  
    18     6    19 1   
    19     7    25 ar  
    20     7    37 1   
    21     8    15 1   
    22     8    26 2   
    23     9    12 ar  
    24     9    38 1   
    25    10    22 1   
    26    10    23 2   
    27    10    24 1   
    28    11    12 ar  
    29    11    22 1   
    30    11    25 ar  
    31    12    39 1   
    32    13    14 1   
    33    13    18 1   
    34    13    40 1   
    35    13    51 1   
    36    14    15 1   
    37    14    41 1   
    38    14    42 1   
    39    15    16 1   
    40    16    17 1   
    41    16    43 1   
    42    16    44 1   
    43    17    18 1   
    44    17    45 1   
    45    17    46 1   
    46    18    19 1   
    47    19    20 2   
    48    19    21 2   
    49    22    47 1   
    50    24    25 1   
    51    27    48 1   
    52    29    30 1   
    53    29    49 1   
    54    30    31 ar  
    55    31    50 1   
    56    51    52 1   
    57    51    53 1   
    58    51    54 1   
@<TRIPOS>SUBSTRUCTURE
     1 SYW         1 TEMP              0 ****  ****    0 ROOT
