@<TRIPOS>MOLECULE
SYX
   32    33     1     0     0
SMALL
abcg2


@<TRIPOS>ATOM
      1 N1          14.1850    -8.8110   -27.7360 n          1 SYX      -0.404800
      2 C4          15.9190    -7.8080   -29.1300 c6         1 SYX       0.149300
      3 C5          13.8130    -9.5940   -26.7050 c          1 SYX       0.590100
      4 C6          12.4860    -9.2510   -26.0090 c5         1 SYX       0.090300
      5 C7          12.1770   -10.1480   -24.8120 c5         1 SYX      -0.093400
      6 C8          12.7260    -9.3440   -23.6310 c5         1 SYX      -0.110400
      7 N           14.9720    -7.3770   -30.1680 n3         1 SYX      -0.724600
      8 C           15.3060    -7.8700   -31.4960 c3         1 SYX       0.153100
      9 O           14.5120   -10.5390   -26.3250 o          1 SYX      -0.618100
     10 C1          13.5850    -7.7060   -29.8210 c6         1 SYX       0.149300
     11 C2          13.3810    -7.7290   -28.3160 c6         1 SYX       0.088000
     12 C3          15.4790    -9.0620   -28.3840 c6         1 SYX       0.088000
     13 C9          12.4160    -7.9190   -24.0630 c5         1 SYX       0.150600
     14 O1          12.5730    -7.9040   -25.4950 os         1 SYX      -0.470000
     15 H1          16.8900    -7.9890   -29.5910 h1         1 SYX       0.051200
     16 H2          16.0550    -7.0020   -28.4040 h1         1 SYX       0.051200
     17 H3          11.6800    -9.2900   -26.7470 h1         1 SYX       0.065700
     18 H4          11.0970   -10.2680   -24.7200 hc         1 SYX       0.067700
     19 H5          12.6320   -11.1290   -24.9160 hc         1 SYX       0.067700
     20 H6          12.2580    -9.6040   -22.6830 hc         1 SYX       0.063200
     21 H7          13.8040    -9.4870   -23.5410 hc         1 SYX       0.063200
     22 H9          16.3100    -7.5450   -31.7730 h1         1 SYX       0.032367
     23 H10         15.2620    -8.9700   -31.5710 h1         1 SYX       0.032367
     24 H11         14.6020    -7.4600   -32.2230 h1         1 SYX       0.032367
     25 H12         12.9110    -6.9710   -30.2680 h1         1 SYX       0.051200
     26 H13         13.2990    -8.6930   -30.2210 h1         1 SYX       0.051200
     27 H14         13.6600    -6.7680   -27.8770 h1         1 SYX       0.059200
     28 H15         12.3300    -7.8950   -28.1020 h1         1 SYX       0.059200
     29 H16         15.3960    -9.9140   -29.0660 h1         1 SYX       0.059200
     30 H17         16.2090    -9.3250   -27.6200 h1         1 SYX       0.059200
     31 H18         13.0910    -7.1720   -23.6460 h1         1 SYX       0.048200
     32 H19         11.3840    -7.6460   -23.8120 h1         1 SYX       0.048200
@<TRIPOS>BOND
     1     1     3 1   
     2     1    11 1   
     3     1    12 1   
     4     2     7 1   
     5     2    12 1   
     6     2    15 1   
     7     2    16 1   
     8     3     4 1   
     9     3     9 2   
    10     4     5 1   
    11     4    14 1   
    12     4    17 1   
    13     5     6 1   
    14     5    18 1   
    15     5    19 1   
    16     6    13 1   
    17     6    20 1   
    18     6    21 1   
    19     7     8 1   
    20     7    10 1   
    21     8    22 1   
    22     8    23 1   
    23     8    24 1   
    24    10    11 1   
    25    10    25 1   
    26    10    26 1   
    27    11    27 1   
    28    11    28 1   
    29    12    29 1   
    30    12    30 1   
    31    13    14 1   
    32    13    31 1   
    33    13    32 1   
@<TRIPOS>SUBSTRUCTURE
     1 SYX         1 TEMP              0 ****  ****    0 ROOT
