@<TRIPOS>MOLECULE
SYX
   32    33     1     0     0
SMALL
No Charge or Current Charge


@<TRIPOS>ATOM
      1 N1          14.3190    -9.0410   -27.7200 n          1 SYX      -0.404800
      2 C4          15.7020    -8.9260   -29.8930 c6         1 SYX       0.149300
      3 C5          14.0820    -9.6080   -26.4360 c          1 SYX       0.590100
      4 C6          12.6460    -9.2770   -25.8660 c5         1 SYX       0.090300
      5 C7          12.2600   -10.1920   -24.6490 c5         1 SYX      -0.093400
      6 C8          12.3620    -9.2180   -23.4460 c5         1 SYX      -0.110400
      7 N           15.2430    -7.5330   -30.1230 n3         1 SYX      -0.724600
      8 C           15.4140    -7.1050   -31.5290 c3         1 SYX       0.153100
      9 O           14.9050   -10.3600   -25.9160 o          1 SYX      -0.618100
     10 C1          13.8410    -7.3960   -29.6530 c6         1 SYX       0.149300
     11 C2          13.6780    -7.7510   -28.1490 c6         1 SYX       0.088000
     12 C3          15.6240    -9.3270   -28.3960 c6         1 SYX       0.088000
     13 C9          11.8520    -7.9270   -24.1140 c5         1 SYX       0.150600
     14 O1          12.5880    -7.9120   -25.3490 os         1 SYX      -0.470000
     15 H1          15.0890    -9.6290   -30.4760 h1         1 SYX       0.051200
     16 H2          16.7410    -9.0500   -30.2330 h1         1 SYX       0.051200
     17 H3          11.9140    -9.3940   -26.6760 h1         1 SYX       0.065700
     18 H4          11.2350   -10.5620   -24.7650 hc         1 SYX       0.067700
     19 H5          12.8950   -11.0760   -24.5300 hc         1 SYX       0.067700
     20 H6          11.7470    -9.5260   -22.5930 hc         1 SYX       0.063200
     21 H7          13.3940    -9.1050   -23.0950 hc         1 SYX       0.063200
     22 H9          16.4670    -7.1810   -31.8320 h1         1 SYX       0.032367
     23 H10         14.8150    -7.7280   -32.2060 h1         1 SYX       0.032367
     24 H11         15.1010    -6.0600   -31.6560 h1         1 SYX       0.032367
     25 H12         13.4820    -6.3680   -29.8090 h1         1 SYX       0.051200
     26 H13         13.1820    -8.0550   -30.2390 h1         1 SYX       0.051200
     27 H14         14.1130    -6.9380   -27.5510 h1         1 SYX       0.059200
     28 H15         12.6010    -7.7630   -27.9420 h1         1 SYX       0.059200
     29 H16         15.8510   -10.4000   -28.3170 h1         1 SYX       0.059200
     30 H17         16.4150    -8.7910   -27.8520 h1         1 SYX       0.059200
     31 H18         12.0690    -7.0220   -23.5300 h1         1 SYX       0.048200
     32 H19         10.7750    -7.9690   -24.3300 h1         1 SYX       0.048200
@<TRIPOS>BOND
     1     1     3 1   
     2     1    11 1   
     3     1    12 1   
     4     2     7 1   
     5     2    12 1   
     6     2    15 1   
     7     2    16 1   
     8     3     4 1   
     9     3     9 2   
    10     4     5 1   
    11     4    14 1   
    12     4    17 1   
    13     5     6 1   
    14     5    18 1   
    15     5    19 1   
    16     6    13 1   
    17     6    20 1   
    18     6    21 1   
    19     7     8 1   
    20     7    10 1   
    21     8    22 1   
    22     8    23 1   
    23     8    24 1   
    24    10    11 1   
    25    10    25 1   
    26    10    26 1   
    27    11    27 1   
    28    11    28 1   
    29    12    29 1   
    30    12    30 1   
    31    13    14 1   
    32    13    31 1   
    33    13    32 1   
@<TRIPOS>SUBSTRUCTURE
     1 SYX         1 TEMP              0 ****  ****    0 ROOT
