@<TRIPOS>MOLECULE
SYY
   29    30     1     0     0
SMALL
No Charge or Current Charge


@<TRIPOS>ATOM
      1 S           -3.6310     1.6540     0.3280 ss         1 SYY       0.299000
      2 C1          -1.3550     2.4190    -0.6660 cc         1 SYY      -0.156000
      3 N1          -0.0840     0.2580    -0.7030 ns         1 SYY      -0.397100
      4 O1          -1.6550    -1.8110     0.2870 o          1 SYY      -0.528000
      5 C2          -1.2090     1.0230    -0.4400 cc         1 SYY       0.140600
      6 O2          -3.7620    -1.2450     0.9540 os         1 SYY      -0.437100
      7 S2           4.4890     0.4730    -0.0540 ss         1 SYY       0.228000
      8 C3          -2.3450     0.4590     0.0910 cd         1 SYY      -0.391600
      9 O3           1.4550     1.7640    -1.5080 o          1 SYY      -0.556100
     10 C5          -2.5810     2.9220    -0.3150 cd         1 SYY      -0.224000
     11 C6          -2.5250    -0.9640     0.4410 c          1 SYY       0.652700
     12 C9          -4.0480    -2.6050     1.3310 c3         1 SYY       0.155900
     13 C11          1.1490     0.6190    -1.2070 c          1 SYY       0.609100
     14 C12          2.1440    -0.5440    -1.3380 c3         1 SYY      -0.087100
     15 C14          3.1200    -0.6340    -0.1870 cc         1 SYY      -0.209300
     16 C15          3.0960    -1.5100     0.8690 cd         1 SYY      -0.122000
     17 C16          4.1600    -1.3180     1.7900 cd         1 SYY      -0.133000
     18 C17          5.0040    -0.2930     1.4460 cc         1 SYY      -0.239000
     19 H1          -0.5680     3.0390    -1.0820 ha         1 SYY       0.169000
     20 HN1         -0.1620    -0.7280    -0.4790 hn         1 SYY       0.355500
     21 H5          -2.9390     3.9410    -0.3870 h4         1 SYY       0.154000
     22 H9          -3.9630    -3.2770     0.4670 h1         1 SYY       0.050367
     23 H9A         -3.3560    -2.9500     2.1100 h1         1 SYY       0.050367
     24 H9B         -5.0690    -2.6850     1.7240 h1         1 SYY       0.050367
     25 H12          1.5910    -1.4900    -1.3880 hc         1 SYY       0.075700
     26 H12A         2.7090    -0.4090    -2.2670 hc         1 SYY       0.075700
     27 H15          2.3370    -2.2780     0.9920 ha         1 SYY       0.131000
     28 H16          4.2930    -1.9250     2.6810 ha         1 SYY       0.134000
     29 H17          5.8860     0.0710     1.9570 h4         1 SYY       0.150000
@<TRIPOS>BOND
     1     1     8 1   
     2     1    10 1   
     3     2     5 1   
     4     2    10 2   
     5     2    19 1   
     6     3     5 1   
     7     3    13 1   
     8     3    20 1   
     9     4    11 2   
    10     5     8 2   
    11     6    11 1   
    12     6    12 1   
    13     7    15 1   
    14     7    18 1   
    15     8    11 1   
    16     9    13 2   
    17    10    21 1   
    18    12    22 1   
    19    12    23 1   
    20    12    24 1   
    21    13    14 1   
    22    14    15 1   
    23    14    25 1   
    24    14    26 1   
    25    15    16 2   
    26    16    17 1   
    27    16    27 1   
    28    17    18 2   
    29    17    28 1   
    30    18    29 1   
@<TRIPOS>SUBSTRUCTURE
     1 SYY         1 TEMP              0 ****  ****    0 ROOT
