@<TRIPOS>MOLECULE
SYY
   29    30     1     0     0
SMALL
bcc


@<TRIPOS>ATOM
      1 S           -3.7980     1.5860    -0.1640 ss         1 SYY       0.009200
      2 C1          -1.3080     2.1970    -0.0900 cc         1 SYY      -0.174000
      3 N1          -0.2740    -0.0770     0.0740 ns         1 SYY      -0.464100
      4 O1          -2.3130    -2.0280     0.0940 o          1 SYY      -0.577000
      5 C2          -1.3550     0.7750    -0.0170 cc         1 SYY       0.140600
      6 O2          -4.3930    -1.2060    -0.0440 os         1 SYY      -0.413900
      7 S2           4.2530    -0.0030    -1.0400 ss         1 SYY      -0.061800
      8 C3          -2.6550     0.3010    -0.0470 cd         1 SYY      -0.246700
      9 O3           1.4730     1.3830     0.0710 o          1 SYY      -0.556100
     10 C5          -2.5530     2.7430    -0.1720 cd         1 SYY      -0.097100
     11 C6          -3.0770    -1.0860     0.0090 c          1 SYY       0.701700
     12 C9          -4.9440    -2.5240     0.0010 c3         1 SYY       0.132700
     13 C11          1.0490     0.2500     0.1140 c          1 SYY       0.676100
     14 C12          1.9420    -0.9760     0.2170 c3         1 SYY      -0.087100
     15 C14          3.3920    -0.6530     0.3020 cc         1 SYY      -0.064400
     16 C15          4.2210    -0.8200     1.3710 cd         1 SYY      -0.140000
     17 C16          5.5600    -0.4220     1.1070 cd         1 SYY      -0.151000
     18 C17          5.7250     0.0400    -0.1620 cc         1 SYY      -0.112100
     19 H1          -0.4080     2.7860    -0.0830 ha         1 SYY       0.187000
     20 HN1         -0.5140    -1.0610     0.1150 hn         1 SYY       0.355500
     21 H5          -2.7890     3.7940    -0.2360 h4         1 SYY       0.172000
     22 H9          -4.6000    -3.1260    -0.8390 h1         1 SYY       0.050367
     23 H9A         -4.6910    -3.0260     0.9340 h1         1 SYY       0.050367
     24 H9B         -6.0210    -2.3970    -0.0610 h1         1 SYY       0.050367
     25 H12          1.6540    -1.5420     1.1070 hc         1 SYY       0.075700
     26 H12A         1.7330    -1.6310    -0.6340 hc         1 SYY       0.075700
     27 H15          3.8820    -1.2200     2.3170 ha         1 SYY       0.149000
     28 H16          6.3620    -0.4820     1.8290 ha         1 SYY       0.152000
     29 H17          6.6280     0.4030    -0.6280 h4         1 SYY       0.168000
@<TRIPOS>BOND
     1     1     8 1   
     2     1    10 1   
     3     2     5 1   
     4     2    10 2   
     5     2    19 1   
     6     3     5 1   
     7     3    13 1   
     8     3    20 1   
     9     4    11 2   
    10     5     8 2   
    11     6    11 1   
    12     6    12 1   
    13     7    15 1   
    14     7    18 1   
    15     8    11 1   
    16     9    13 2   
    17    10    21 1   
    18    12    22 1   
    19    12    23 1   
    20    12    24 1   
    21    13    14 1   
    22    14    15 1   
    23    14    25 1   
    24    14    26 1   
    25    15    16 2   
    26    16    17 1   
    27    16    27 1   
    28    17    18 2   
    29    17    28 1   
    30    18    29 1   
@<TRIPOS>SUBSTRUCTURE
     1 SYY         1 TEMP              0 ****  ****    0 ROOT
