@<TRIPOS>MOLECULE
SYZ
   33    34     1     0     0
SMALL
No Charge or Current Charge


@<TRIPOS>ATOM
      1 N1         -37.2020     1.9740     1.1990 n          1 SYZ      -0.388400
      2 C4         -37.8100     8.9250     2.1380 ca         1 SYZ      -0.059000
      3 C5         -37.4670     7.9910     1.1340 ca         1 SYZ      -0.148600
      4 C6         -36.7420     8.4490     0.0040 ca         1 SYZ      -0.090000
      5 C7         -37.8820     6.5420     1.2960 c          1 SYZ       0.610700
      6 C8         -37.8160     4.2370     0.2650 c3         1 SYZ       0.086000
      7 C10        -36.4210     1.1800     0.3540 c          1 SYZ       0.573000
      8 O2         -38.8730     2.0150     2.8100 o          1 SYZ      -0.443000
      9 C12        -38.1580     1.4020     2.0330 c          1 SYZ       0.591600
     10 S          -38.2000    -0.3850     1.7870 ss         1 SYZ      -0.264600
     11 C11        -36.8570    -0.2870     0.5000 c5         1 SYZ      -0.064400
     12 O1         -35.5460     1.6120    -0.3820 o          1 SYZ      -0.492000
     13 C9         -36.9550     3.4380     1.2660 c3         1 SYZ       0.080000
     14 N          -37.5240     5.6760     0.2830 ns         1 SYZ      -0.509900
     15 O          -38.5040     6.1480     2.2730 o          1 SYZ      -0.587100
     16 C3         -37.4420    10.2750     2.0180 ca         1 SYZ      -0.116000
     17 C2         -36.7250    10.7140     0.8950 ca         1 SYZ      -0.090000
     18 C1         -36.3710     9.8020    -0.1150 ca         1 SYZ      -0.083300
     19 C          -35.5960    10.2750    -1.3360 c3         1 SYZ      -0.047800
     20 H2         -36.4580     7.7670    -0.7920 ha         1 SYZ       0.108000
     21 H3         -37.6330     3.8580    -0.7500 h1         1 SYZ       0.065700
     22 H4         -38.8790     4.0840     0.4940 h1         1 SYZ       0.065700
     23 H5         -37.2270    -0.6390    -0.4700 h1         1 SYZ       0.113200
     24 H6         -37.1550     3.7980     2.2830 h1         1 SYZ       0.078200
     25 H7         -35.8940     3.6420     1.0660 h1         1 SYZ       0.078200
     26 H8         -37.0170     6.0750    -0.4970 hn         1 SYZ       0.320500
     27 H9         -37.7140    10.9820     2.7980 ha         1 SYZ       0.119000
     28 H10        -36.4470    11.7620     0.8100 ha         1 SYZ       0.114000
     29 H11        -35.0420    11.1990    -1.1300 hc         1 SYZ       0.044033
     30 H12        -34.8680     9.5220    -1.6620 hc         1 SYZ       0.044033
     31 H13        -36.2730    10.4710    -2.1760 hc         1 SYZ       0.044033
     32 H14        -35.9880    -0.8840     0.8010 h1         1 SYZ       0.113200
     33 H1         -38.3660     8.6060     3.0180 ha         1 SYZ       0.135000
@<TRIPOS>BOND
     1     1     7 1   
     2     1     9 1   
     3     1    13 1   
     4     2     3 ar  
     5     2    16 ar  
     6     2    33 1   
     7     3     4 ar  
     8     3     5 1   
     9     4    18 ar  
    10     4    20 1   
    11     5    14 1   
    12     5    15 2   
    13     6    13 1   
    14     6    14 1   
    15     6    21 1   
    16     6    22 1   
    17     7    11 1   
    18     7    12 2   
    19     8     9 2   
    20     9    10 1   
    21    10    11 1   
    22    11    23 1   
    23    11    32 1   
    24    13    24 1   
    25    13    25 1   
    26    14    26 1   
    27    16    17 ar  
    28    16    27 1   
    29    17    18 ar  
    30    17    28 1   
    31    18    19 1   
    32    19    29 1   
    33    19    30 1   
    34    19    31 1   
@<TRIPOS>SUBSTRUCTURE
     1 SYZ         1 TEMP              0 ****  ****    0 ROOT
