@<TRIPOS>MOLECULE
SYZ
   33    34     1     0     0
SMALL
abcg2


@<TRIPOS>ATOM
      1 N1         -36.9670     2.1130     1.1050 n          1 SYZ      -0.388400
      2 C4         -38.3060     8.9510     1.7790 ca         1 SYZ      -0.059000
      3 C5         -37.5990     7.9640     1.1000 ca         1 SYZ      -0.148600
      4 C6         -36.5630     8.3300     0.2420 ca         1 SYZ      -0.090000
      5 C7         -37.9540     6.5350     1.3570 c          1 SYZ       0.610700
      6 C8         -37.9810     4.2630     0.4470 c3         1 SYZ       0.086000
      7 C10        -36.7200     1.2630     0.0550 c          1 SYZ       0.573000
      8 O2         -37.7650     2.1730     3.2520 o          1 SYZ      -0.443000
      9 C12        -37.4780     1.5590     2.2620 c          1 SYZ       0.591600
     10 S          -37.6540    -0.1860     2.1000 ss         1 SYZ      -0.264600
     11 C11        -37.0310    -0.1700     0.4060 c5         1 SYZ      -0.064400
     12 O1         -36.3040     1.6210    -1.0180 o          1 SYZ      -0.492000
     13 C9         -36.7460     3.5460     0.9970 c3         1 SYZ       0.080000
     14 N          -37.7480     5.6810     0.3370 ns         1 SYZ      -0.509900
     15 O          -38.4160     6.1790     2.4310 o          1 SYZ      -0.587100
     16 C3         -37.9920    10.2860     1.5740 ca         1 SYZ      -0.116000
     17 C2         -36.9620    10.6400     0.7150 ca         1 SYZ      -0.090000
     18 C1         -36.2270     9.6650     0.0420 ca         1 SYZ      -0.083300
     19 C          -35.0980    10.0510    -0.8680 c3         1 SYZ      -0.047800
     20 H2         -35.9750     7.5720    -0.2640 ha         1 SYZ       0.108000
     21 H3         -38.2260     3.8820    -0.5430 h1         1 SYZ       0.065700
     22 H4         -38.8380     4.0810     1.0950 h1         1 SYZ       0.065700
     23 H5         -37.7780    -0.5630    -0.2830 h1         1 SYZ       0.113200
     24 H6         -36.4920     3.9300     1.9830 h1         1 SYZ       0.078200
     25 H7         -35.8910     3.7070     0.3430 h1         1 SYZ       0.078200
     26 H8         -37.4340     6.0310    -0.5530 hn         1 SYZ       0.320500
     27 H9         -38.5500    11.0540     2.0930 ha         1 SYZ       0.119000
     28 H10        -36.7200    11.6860     0.5710 ha         1 SYZ       0.114000
     29 H11        -34.3410    10.6270    -0.3330 hc         1 SYZ       0.044033
     30 H12        -34.6110     9.1760    -1.2950 hc         1 SYZ       0.044033
     31 H13        -35.4500    10.6730    -1.6920 hc         1 SYZ       0.044033
     32 H14        -36.1280    -0.7740     0.3220 h1         1 SYZ       0.113200
     33 H1         -39.1050     8.6800     2.4550 ha         1 SYZ       0.135000
@<TRIPOS>BOND
     1     1     7 1   
     2     1     9 1   
     3     1    13 1   
     4     2     3 ar  
     5     2    16 ar  
     6     2    33 1   
     7     3     4 ar  
     8     3     5 1   
     9     4    18 ar  
    10     4    20 1   
    11     5    14 1   
    12     5    15 2   
    13     6    13 1   
    14     6    14 1   
    15     6    21 1   
    16     6    22 1   
    17     7    11 1   
    18     7    12 2   
    19     8     9 2   
    20     9    10 1   
    21    10    11 1   
    22    11    23 1   
    23    11    32 1   
    24    13    24 1   
    25    13    25 1   
    26    14    26 1   
    27    16    17 ar  
    28    16    27 1   
    29    17    18 ar  
    30    17    28 1   
    31    18    19 1   
    32    19    29 1   
    33    19    30 1   
    34    19    31 1   
@<TRIPOS>SUBSTRUCTURE
     1 SYZ         1 TEMP              0 ****  ****    0 ROOT
