@<TRIPOS>MOLECULE
SZ0
   56    58     1     0     0
SMALL
bcc


@<TRIPOS>ATOM
      1 N            4.2870     1.1690    -0.5520 n8         1 SZ0      -0.903800
      2 C1           3.8780    -0.1550    -0.1180 c3         1 SZ0       0.144500
      3 C2           2.4260    -0.2260     0.3980 c3         1 SZ0       0.093100
      4 O1           2.1140    -1.5130     0.9000 oh         1 SZ0      -0.586800
      5 C3           4.8640    -0.6480     0.9500 c3         1 SZ0      -0.028100
      6 C4           6.2650    -0.7730     0.4260 ca         1 SZ0      -0.045300
      7 C5           7.2010     0.2420     0.6030 ca         1 SZ0      -0.119000
      8 C6           6.6540    -1.9150    -0.2730 ca         1 SZ0      -0.119000
      9 C7           8.4910     0.1200     0.1040 ca         1 SZ0      -0.134500
     10 C8           7.9400    -2.0410    -0.7800 ca         1 SZ0      -0.134500
     11 C9           8.8650    -1.0230    -0.5920 ca         1 SZ0      -0.144000
     12 C10          1.4160     0.2060    -0.6600 c3         1 SZ0       0.173800
     13 N2           0.0630     0.3090    -0.1310 n3         1 SZ0      -0.696600
     14 C11         -0.5790     1.5780    -0.4190 c6         1 SZ0       0.050500
     15 C12         -1.9410     1.6590     0.2790 c6         1 SZ0      -0.047400
     16 C13         -2.8110     0.4740    -0.1180 c6         1 SZ0      -0.124900
     17 C14         -2.0980    -0.8330     0.1780 c6         1 SZ0      -0.056400
     18 C15         -0.7500    -0.8230    -0.5270 c6         1 SZ0       0.191800
     19 C            0.2330     2.8050     0.0740 c          1 SZ0       0.925600
     20 O            0.9280     2.6640     1.0960 o          1 SZ0      -0.820300
     21 N3          -6.8040    -2.8400    -1.0020 nb         1 SZ0      -0.649000
     22 C17         -6.2070    -2.9610     0.1760 ca         1 SZ0       0.380700
     23 C18         -5.4560    -1.9490     0.7610 ca         1 SZ0      -0.155300
     24 C19         -5.3400    -0.7610     0.0630 ca         1 SZ0      -0.208500
     25 C20         -5.9620    -0.6090    -1.1650 ca         1 SZ0      -0.155300
     26 C21         -6.6810    -1.6900    -1.6530 ca         1 SZ0       0.380700
     27 S1          -4.3900     0.5890     0.7400 sy         1 SZ0       1.036300
     28 O3          -4.1870     0.3260     2.1640 o          1 SZ0      -0.592300
     29 O4          -5.0480     1.8330     0.3440 o          1 SZ0      -0.592300
     30 H            3.7430     1.4780    -1.3460 hn         1 SZ0       0.355800
     31 H1           3.9610    -0.8220    -0.9870 h1         1 SZ0       0.037700
     32 H3           2.3220     0.4590     1.2450 h1         1 SZ0       0.126700
     33 H4           2.2220    -2.1490     0.1840 ho         1 SZ0       0.374000
     34 H5           4.8400     0.0470     1.7960 hc         1 SZ0       0.054700
     35 H6           4.5310    -1.6150     1.3310 hc         1 SZ0       0.054700
     36 H7           6.9180     1.1370     1.1450 ha         1 SZ0       0.128000
     37 H8           5.9390    -2.7180    -0.4190 ha         1 SZ0       0.128000
     38 H9           9.2070     0.9180     0.2590 ha         1 SZ0       0.119000
     39 H10          8.2220    -2.9380    -1.3170 ha         1 SZ0       0.119000
     40 H11          9.8710    -1.1190    -0.9820 ha         1 SZ0       0.117000
     41 H12          1.7240     1.1630    -1.0830 h1         1 SZ0       0.025200
     42 H13          1.4520    -0.5020    -1.5040 h1         1 SZ0       0.025200
     43 H14         -0.7530     1.6990    -1.5030 h1         1 SZ0       0.010700
     44 H15         -1.7830     1.6590     1.3610 hc         1 SZ0       0.076700
     45 H16         -2.4170     2.6000     0.0020 hc         1 SZ0       0.076700
     46 H17         -3.0680     0.5360    -1.1810 h1         1 SZ0       0.081700
     47 H18         -1.9490    -0.9480     1.2540 hc         1 SZ0       0.050200
     48 H19         -2.6720    -1.6910    -0.1770 hc         1 SZ0       0.050200
     49 H20         -0.9200    -0.8500    -1.6180 h1         1 SZ0       0.012200
     50 H21         -0.2270    -1.7430    -0.2710 h1         1 SZ0       0.012200
     51 H24         -5.9040     0.3080    -1.7360 ha         1 SZ0       0.165000
     52 H25         -7.1830    -1.6150    -2.6110 h4         1 SZ0       0.017100
     53 H2           4.1220     1.8420     0.1890 hn         1 SZ0       0.355800
     54 OXT          0.0620     3.8520    -0.5810 o          1 SZ0      -0.820300
     55 H22         -6.3250    -3.9080     0.6890 h4         1 SZ0       0.017100
     56 H23         -4.9920    -2.1030     1.7240 ha         1 SZ0       0.165000
@<TRIPOS>BOND
     1     1     2 1   
     2     1    30 1   
     3     1    53 1   
     4     2     3 1   
     5     2     5 1   
     6     2    31 1   
     7     3     4 1   
     8     3    12 1   
     9     3    32 1   
    10     4    33 1   
    11     5     6 1   
    12     5    34 1   
    13     5    35 1   
    14     6     7 ar  
    15     6     8 ar  
    16     7     9 ar  
    17     7    36 1   
    18     8    10 ar  
    19     8    37 1   
    20     9    11 ar  
    21     9    38 1   
    22    10    11 ar  
    23    10    39 1   
    24    11    40 1   
    25    12    13 1   
    26    12    41 1   
    27    12    42 1   
    28    13    14 1   
    29    13    18 1   
    30    14    15 1   
    31    14    19 1   
    32    14    43 1   
    33    15    16 1   
    34    15    44 1   
    35    15    45 1   
    36    16    17 1   
    37    16    27 1   
    38    16    46 1   
    39    17    18 1   
    40    17    47 1   
    41    17    48 1   
    42    18    49 1   
    43    18    50 1   
    44    19    20 1   
    45    19    54 1   
    46    21    22 ar  
    47    21    26 ar  
    48    22    23 ar  
    49    22    55 1   
    50    23    24 ar  
    51    23    56 1   
    52    24    25 ar  
    53    24    27 1   
    54    25    26 ar  
    55    25    51 1   
    56    26    52 1   
    57    27    28 2   
    58    27    29 2   
@<TRIPOS>SUBSTRUCTURE
     1 SZ0         1 TEMP              0 ****  ****    0 ROOT
