@<TRIPOS>MOLECULE
SZ0
   56    58     1     0     0
SMALL
No Charge or Current Charge


@<TRIPOS>ATOM
      1 N            4.4630     1.1370    -0.8630 n8         1 SZ0      -0.903800
      2 C1           3.9050     0.0180    -0.0630 c3         1 SZ0       0.144500
      3 C2           2.5350     0.4010     0.5920 c3         1 SZ0       0.093100
      4 O1           1.9930    -0.6980     1.3430 oh         1 SZ0      -0.586800
      5 C3           4.9570    -0.4710     0.9740 c3         1 SZ0      -0.028100
      6 C4           6.2660    -0.9530     0.3500 ca         1 SZ0      -0.045300
      7 C5           7.4620    -0.2340     0.5480 ca         1 SZ0      -0.119000
      8 C6           6.2940    -2.1380    -0.4120 ca         1 SZ0      -0.119000
      9 C7           8.6680    -0.6890    -0.0150 ca         1 SZ0      -0.134500
     10 C8           7.4990    -2.5940    -0.9760 ca         1 SZ0      -0.134500
     11 C9           8.6860    -1.8690    -0.7780 ca         1 SZ0      -0.144000
     12 C10          1.4600     0.8680    -0.4340 c3         1 SZ0       0.173800
     13 N2           0.0570     0.7510     0.0710 n3         1 SZ0      -0.696600
     14 C11         -0.7830     1.9990    -0.1800 c6         1 SZ0       0.050500
     15 C12         -2.1980     1.8410     0.4460 c6         1 SZ0      -0.047400
     16 C13         -2.9120     0.5540    -0.0490 c6         1 SZ0      -0.124900
     17 C14         -2.0100    -0.6820     0.2090 c6         1 SZ0      -0.056400
     18 C15         -0.6200    -0.4810    -0.4320 c6         1 SZ0       0.191800
     19 C           -0.1980     3.4180     0.2540 c          1 SZ0       0.925600
     20 O            0.4570     3.4850     1.2920 o          1 SZ0      -0.820300
     21 N3          -6.2490    -3.4920    -1.2910 nb         1 SZ0      -0.649000
     22 C17         -5.7020    -3.5230    -0.0530 ca         1 SZ0       0.380700
     23 C18         -5.1880    -2.3810     0.5880 ca         1 SZ0      -0.155300
     24 C19         -5.2340    -1.1330    -0.0720 ca         1 SZ0      -0.208500
     25 C20         -5.8060    -1.1070    -1.3640 ca         1 SZ0      -0.155300
     26 C21         -6.2960    -2.2980    -1.9280 ca         1 SZ0       0.380700
     27 S1          -4.5790     0.3760     0.6980 sy         1 SZ0       1.036300
     28 O3          -4.4090     0.1270     2.1380 o          1 SZ0      -0.592300
     29 O4          -5.3880     1.5110     0.2270 o          1 SZ0      -0.592300
     30 H            3.7740     1.4480    -1.5540 hn         1 SZ0       0.355800
     31 H1           3.7150    -0.8080    -0.7610 h1         1 SZ0       0.037700
     32 H3           2.7060     1.2470     1.2720 h1         1 SZ0       0.126700
     33 H4           1.0210    -0.5540     1.2810 ho         1 SZ0       0.374000
     34 H5           5.1480     0.3320     1.6960 hc         1 SZ0       0.054700
     35 H6           4.5300    -1.2970     1.5560 hc         1 SZ0       0.054700
     36 H7           7.4580     0.6810     1.1370 ha         1 SZ0       0.128000
     37 H8           5.3790    -2.7070    -0.5670 ha         1 SZ0       0.128000
     38 H9           9.5870    -0.1280     0.1400 ha         1 SZ0       0.119000
     39 H10          7.5120    -3.5090    -1.5640 ha         1 SZ0       0.119000
     40 H11          9.6190    -2.2220    -1.2130 ha         1 SZ0       0.117000
     41 H12          1.6930     1.9040    -0.7080 h1         1 SZ0       0.025200
     42 H13          1.5720     0.2830    -1.3580 h1         1 SZ0       0.025200
     43 H14         -0.9320     2.0750    -1.2680 h1         1 SZ0       0.010700
     44 H15         -2.1060     1.8230     1.5420 hc         1 SZ0       0.076700
     45 H16         -2.8050     2.7230     0.2000 hc         1 SZ0       0.076700
     46 H17         -3.1020     0.6410    -1.1270 h1         1 SZ0       0.081700
     47 H18         -1.8920    -0.8520     1.2880 hc         1 SZ0       0.050200
     48 H19         -2.4690    -1.5880    -0.2070 hc         1 SZ0       0.050200
     49 H20         -0.7370    -0.4240    -1.5240 h1         1 SZ0       0.012200
     50 H21         -0.0090    -1.3700    -0.2230 h1         1 SZ0       0.012200
     51 H24         -5.8760    -0.1820    -1.9310 ha         1 SZ0       0.165000
     52 H25         -6.7410    -2.2970    -2.9220 h4         1 SZ0       0.017100
     53 H2           4.6120     1.9520    -0.2600 hn         1 SZ0       0.355800
     54 OXT         -0.0370     4.2500    -0.6360 o          1 SZ0      -0.820300
     55 H22         -5.6750    -4.4940     0.4400 h4         1 SZ0       0.017100
     56 H23         -4.7610    -2.4790     1.5830 ha         1 SZ0       0.165000
@<TRIPOS>BOND
     1     1     2 1   
     2     1    30 1   
     3     1    53 1   
     4     2     3 1   
     5     2     5 1   
     6     2    31 1   
     7     3     4 1   
     8     3    12 1   
     9     3    32 1   
    10     4    33 1   
    11     5     6 1   
    12     5    34 1   
    13     5    35 1   
    14     6     7 ar  
    15     6     8 ar  
    16     7     9 ar  
    17     7    36 1   
    18     8    10 ar  
    19     8    37 1   
    20     9    11 ar  
    21     9    38 1   
    22    10    11 ar  
    23    10    39 1   
    24    11    40 1   
    25    12    13 1   
    26    12    41 1   
    27    12    42 1   
    28    13    14 1   
    29    13    18 1   
    30    14    15 1   
    31    14    19 1   
    32    14    43 1   
    33    15    16 1   
    34    15    44 1   
    35    15    45 1   
    36    16    17 1   
    37    16    27 1   
    38    16    46 1   
    39    17    18 1   
    40    17    47 1   
    41    17    48 1   
    42    18    49 1   
    43    18    50 1   
    44    19    20 1   
    45    19    54 1   
    46    21    22 ar  
    47    21    26 ar  
    48    22    23 ar  
    49    22    55 1   
    50    23    24 ar  
    51    23    56 1   
    52    24    25 ar  
    53    24    27 1   
    54    25    26 ar  
    55    25    51 1   
    56    26    52 1   
    57    27    28 2   
    58    27    29 2   
@<TRIPOS>SUBSTRUCTURE
     1 SZ0         1 TEMP              0 ****  ****    0 ROOT
