@<TRIPOS>MOLECULE
SZ1
   23    23     1     0     0
SMALL
abcg2


@<TRIPOS>ATOM
      1 N            2.6230     0.0570     0.0600 n8         1 SZ1      -1.004200
      2 C1           1.1760     0.0270     0.2680 c3         1 SZ1       0.169500
      3 C2           0.6670    -1.3310    -0.2160 c3         1 SZ1      -0.070400
      4 C3          -0.7820    -1.6700     0.1130 c3         1 SZ1      -0.070400
      5 C4          -1.8320    -0.6520    -0.3250 c3         1 SZ1      -0.070400
      6 C5          -1.7860     0.6450     0.4830 c3         1 SZ1      -0.070400
      7 C6          -0.7920     1.6970    -0.0120 c3         1 SZ1      -0.070400
      8 C7           0.5520     1.1790    -0.5260 c3         1 SZ1      -0.070400
      9 HN           2.9960     0.9340     0.4040 hn         1 SZ1       0.391500
     10 HNA          3.0600    -0.6640     0.6210 hn         1 SZ1       0.391500
     11 H1           0.9120     0.1440     1.3330 h1         1 SZ1       0.017700
     12 H2           0.8170    -1.3770    -1.3010 hc         1 SZ1       0.043450
     13 H2A          1.2980    -2.1170     0.2120 hc         1 SZ1       0.043450
     14 H3          -1.0110    -2.6380    -0.3420 hc         1 SZ1       0.034450
     15 H3A         -0.8810    -1.8190     1.1940 hc         1 SZ1       0.034450
     16 H4          -1.7390    -0.4420    -1.3960 hc         1 SZ1       0.036450
     17 H4A         -2.8170    -1.1090    -0.1960 hc         1 SZ1       0.036450
     18 H5          -2.7780     1.1020     0.5050 hc         1 SZ1       0.036450
     19 H5A         -1.5620     0.3900     1.5240 hc         1 SZ1       0.036450
     20 H6          -1.2560     2.2770    -0.8150 hc         1 SZ1       0.034450
     21 H6A         -0.6170     2.4090     0.8000 hc         1 SZ1       0.034450
     22 H7           1.2480     2.0230    -0.5360 hc         1 SZ1       0.043450
     23 H7A          0.4590     0.8630    -1.5700 hc         1 SZ1       0.043450
@<TRIPOS>BOND
     1     1     2 1   
     2     1     9 1   
     3     1    10 1   
     4     2     3 1   
     5     2     8 1   
     6     2    11 1   
     7     3     4 1   
     8     3    12 1   
     9     3    13 1   
    10     4     5 1   
    11     4    14 1   
    12     4    15 1   
    13     5     6 1   
    14     5    16 1   
    15     5    17 1   
    16     6     7 1   
    17     6    18 1   
    18     6    19 1   
    19     7     8 1   
    20     7    20 1   
    21     7    21 1   
    22     8    22 1   
    23     8    23 1   
@<TRIPOS>SUBSTRUCTURE
     1 SZ1         1 TEMP              0 ****  ****    0 ROOT
