@<TRIPOS>MOLECULE
SZ1
   23    23     1     0     0
SMALL
No Charge or Current Charge


@<TRIPOS>ATOM
      1 N            2.6670     0.0570     0.0670 n8         1 SZ1      -1.004200
      2 C1           1.2030     0.0240     0.2330 c3         1 SZ1       0.169500
      3 C2           0.6730    -1.3570    -0.2420 c3         1 SZ1      -0.070400
      4 C3          -0.7890    -1.6940     0.1260 c3         1 SZ1      -0.070400
      5 C4          -1.8560    -0.6680    -0.3190 c3         1 SZ1      -0.070400
      6 C5          -1.8100     0.6520     0.4820 c3         1 SZ1      -0.070400
      7 C6          -0.8040     1.7140    -0.0210 c3         1 SZ1      -0.070400
      8 C7           0.5690     1.2150    -0.5340 c3         1 SZ1      -0.070400
      9 HN           3.0270     0.9260     0.4780 hn         1 SZ1       0.391500
     10 HNA          3.0830    -0.6750     0.6550 hn         1 SZ1       0.391500
     11 H1           1.0020     0.1390     1.3070 h1         1 SZ1       0.017700
     12 H2           0.7870    -1.4300    -1.3310 hc         1 SZ1       0.043450
     13 H2A          1.3070    -2.1460     0.1820 hc         1 SZ1       0.043450
     14 H3          -1.0360    -2.6630    -0.3230 hc         1 SZ1       0.034450
     15 H3A         -0.8600    -1.8370     1.2120 hc         1 SZ1       0.034450
     16 H4          -1.7720    -0.4680    -1.3950 hc         1 SZ1       0.036450
     17 H4A         -2.8420    -1.1230    -0.1650 hc         1 SZ1       0.036450
     18 H5          -2.8090     1.1040     0.4700 hc         1 SZ1       0.036450
     19 H5A         -1.5990     0.4260     1.5350 hc         1 SZ1       0.036450
     20 H6          -1.2760     2.2880    -0.8270 hc         1 SZ1       0.034450
     21 H6A         -0.6350     2.4270     0.7950 hc         1 SZ1       0.034450
     22 H7           1.2530     2.0730    -0.5110 hc         1 SZ1       0.043450
     23 H7A          0.4730     0.9440    -1.5930 hc         1 SZ1       0.043450
@<TRIPOS>BOND
     1     1     2 1   
     2     1     9 1   
     3     1    10 1   
     4     2     3 1   
     5     2     8 1   
     6     2    11 1   
     7     3     4 1   
     8     3    12 1   
     9     3    13 1   
    10     4     5 1   
    11     4    14 1   
    12     4    15 1   
    13     5     6 1   
    14     5    16 1   
    15     5    17 1   
    16     6     7 1   
    17     6    18 1   
    18     6    19 1   
    19     7     8 1   
    20     7    20 1   
    21     7    21 1   
    22     8    22 1   
    23     8    23 1   
@<TRIPOS>SUBSTRUCTURE
     1 SZ1         1 TEMP              0 ****  ****    0 ROOT
