@<TRIPOS>MOLECULE
SZ2
   32    34     1     0     0
SMALL
No Charge or Current Charge


@<TRIPOS>ATOM
      1 N1         -41.9140     5.8030    -4.0580 nc         1 SZ2      -0.370300
      2 C4         -38.3420     5.6520    -1.2020 c6         1 SZ2      -0.069400
      3 C5         -36.8670     5.3670    -0.8210 c6         1 SZ2      -0.074400
      4 C6         -40.2140     5.1140    -2.8150 cc         1 SZ2       0.493300
      5 C7         -42.3080     5.3100    -2.8940 cd         1 SZ2       0.605500
      6 C8         -43.7310     5.2380    -2.4900 ca         1 SZ2      -0.102500
      7 C10        -45.4780     4.6540    -0.8920 ca         1 SZ2       0.326400
      8 C12        -44.7690     5.6960    -3.3330 ca         1 SZ2      -0.125000
      9 C11        -46.1050     5.6070    -2.9060 ca         1 SZ2       0.326400
     10 N2         -46.4650     5.0960    -1.7060 nb         1 SZ2      -0.652000
     11 C9         -44.1170     4.7050    -1.2390 ca         1 SZ2      -0.125000
     12 N          -41.2840     4.8690    -2.0870 nd         1 SZ2      -0.717000
     13 O          -40.5100     5.6780    -4.0200 os         1 SZ2      -0.083700
     14 C3         -38.7660     4.8450    -2.4630 c6         1 SZ2      -0.098000
     15 C2         -38.5200     3.3240    -2.2480 c6         1 SZ2      -0.069400
     16 C1         -37.0450     3.0410    -1.8670 c6         1 SZ2      -0.074400
     17 C          -36.6240     3.8510    -0.6160 c6         1 SZ2      -0.077400
     18 H2         -38.9940     5.3950    -0.3550 hc         1 SZ2       0.054700
     19 H3         -36.2010     5.7450    -1.6090 hc         1 SZ2       0.043950
     20 H4         -36.6070     5.9130     0.0950 hc         1 SZ2       0.043950
     21 H5         -45.7890     4.2460     0.0690 h4         1 SZ2       0.023100
     22 H6         -44.5570     6.1200    -4.3110 ha         1 SZ2       0.142000
     23 H7         -46.9150     5.9570    -3.5460 h4         1 SZ2       0.023100
     24 H8         -43.3790     4.3320    -0.5340 ha         1 SZ2       0.142000
     25 H9         -38.1380     5.1740    -3.3030 hc         1 SZ2       0.075700
     26 H10        -39.1820     2.9440    -1.4560 hc         1 SZ2       0.054700
     27 H11        -38.7780     2.7690    -3.1610 hc         1 SZ2       0.054700
     28 H12        -36.9090     1.9670    -1.6780 hc         1 SZ2       0.043950
     29 H13        -36.3890     3.2950    -2.7110 hc         1 SZ2       0.043950
     30 H14        -37.1900     3.5010     0.2590 hc         1 SZ2       0.043700
     31 H15        -35.5640     3.6700    -0.3940 hc         1 SZ2       0.043700
     32 H1         -38.4760     6.7280    -1.3820 hc         1 SZ2       0.054700
@<TRIPOS>BOND
     1     1     5 2   
     2     1    13 1   
     3     2     3 1   
     4     2    14 1   
     5     2    18 1   
     6     2    32 1   
     7     3    17 1   
     8     3    19 1   
     9     3    20 1   
    10     4    12 2   
    11     4    13 1   
    12     4    14 1   
    13     5     6 1   
    14     5    12 1   
    15     6     8 ar  
    16     6    11 ar  
    17     7    10 ar  
    18     7    11 ar  
    19     7    21 1   
    20     8     9 ar  
    21     8    22 1   
    22     9    10 ar  
    23     9    23 1   
    24    11    24 1   
    25    14    15 1   
    26    14    25 1   
    27    15    16 1   
    28    15    26 1   
    29    15    27 1   
    30    16    17 1   
    31    16    28 1   
    32    16    29 1   
    33    17    30 1   
    34    17    31 1   
@<TRIPOS>SUBSTRUCTURE
     1 SZ2         1 TEMP              0 ****  ****    0 ROOT
