@<TRIPOS>MOLECULE
SZ2
   32    34     1     0     0
SMALL
abcg2


@<TRIPOS>ATOM
      1 N1         -41.8850     5.7070    -4.0300 nc         1 SZ2      -0.370300
      2 C4         -38.3960     5.6110    -1.1480 c6         1 SZ2      -0.069400
      3 C5         -36.9380     5.3320    -0.8000 c6         1 SZ2      -0.074400
      4 C6         -40.2150     5.1180    -2.7690 cc         1 SZ2       0.493300
      5 C7         -42.2810     5.2940    -2.8630 cd         1 SZ2       0.605500
      6 C8         -43.6910     5.2380    -2.4780 ca         1 SZ2      -0.102500
      7 C10        -45.4010     4.7600    -0.8830 ca         1 SZ2       0.326400
      8 C12        -44.7020     5.6110    -3.3590 ca         1 SZ2      -0.125000
      9 C11        -46.0160     5.5280    -2.9300 ca         1 SZ2       0.326400
     10 N2         -46.3690     5.1120    -1.7180 nb         1 SZ2      -0.652000
     11 C9         -44.0530     4.8030    -1.2090 ca         1 SZ2      -0.125000
     12 N          -41.2640     4.9150    -2.0410 nd         1 SZ2      -0.717000
     13 O          -40.5290     5.5920    -3.9700 os         1 SZ2      -0.083700
     14 C3         -38.7920     4.8680    -2.4300 c6         1 SZ2      -0.098000
     15 C2         -38.5420     3.3590    -2.2800 c6         1 SZ2      -0.069400
     16 C1         -37.0830     3.0890    -1.9280 c6         1 SZ2      -0.074400
     17 C          -36.6700     3.8370    -0.6650 c6         1 SZ2      -0.077400
     18 H2         -39.0420     5.2810    -0.3290 hc         1 SZ2       0.054700
     19 H3         -36.2950     5.7470    -1.5830 hc         1 SZ2       0.043950
     20 H4         -36.6770     5.8520     0.1250 hc         1 SZ2       0.043950
     21 H5         -45.7060     4.4230     0.1010 h4         1 SZ2       0.023100
     22 H6         -44.4810     5.9580    -4.3590 ha         1 SZ2       0.142000
     23 H7         -46.8190     5.8110    -3.6000 h4         1 SZ2       0.023100
     24 H8         -43.3090     4.5020    -0.4850 ha         1 SZ2       0.142000
     25 H9         -38.1800     5.2420    -3.2570 hc         1 SZ2       0.075700
     26 H10        -39.1900     2.9710    -1.4880 hc         1 SZ2       0.054700
     27 H11        -38.8160     2.8400    -3.2000 hc         1 SZ2       0.054700
     28 H12        -36.9310     2.0150    -1.8030 hc         1 SZ2       0.043950
     29 H13        -36.4460     3.4000    -2.7630 hc         1 SZ2       0.043950
     30 H14        -37.2330     3.4440     0.1890 hc         1 SZ2       0.043700
     31 H15        -35.6140     3.6610    -0.4490 hc         1 SZ2       0.043700
     32 H1         -38.5600     6.6840    -1.2720 hc         1 SZ2       0.054700
@<TRIPOS>BOND
     1     1     5 2   
     2     1    13 1   
     3     2     3 1   
     4     2    14 1   
     5     2    18 1   
     6     2    32 1   
     7     3    17 1   
     8     3    19 1   
     9     3    20 1   
    10     4    12 2   
    11     4    13 1   
    12     4    14 1   
    13     5     6 1   
    14     5    12 1   
    15     6     8 ar  
    16     6    11 ar  
    17     7    10 ar  
    18     7    11 ar  
    19     7    21 1   
    20     8     9 ar  
    21     8    22 1   
    22     9    10 ar  
    23     9    23 1   
    24    11    24 1   
    25    14    15 1   
    26    14    25 1   
    27    15    16 1   
    28    15    26 1   
    29    15    27 1   
    30    16    17 1   
    31    16    28 1   
    32    16    29 1   
    33    17    30 1   
    34    17    31 1   
@<TRIPOS>SUBSTRUCTURE
     1 SZ2         1 TEMP              0 ****  ****    0 ROOT
