@<TRIPOS>MOLECULE
SZ3
   21    21     1     0     0
SMALL
abcg2


@<TRIPOS>ATOM
      1 N            2.8310    -0.0180    -0.1410 n8         1 SZ3      -0.999200
      2 O           -2.7930    -0.0460     0.0890 oh         1 SZ3      -0.661000
      3 C1           1.4490    -0.0100     0.3150 c6         1 SZ3       0.162500
      4 C2           0.7290    -1.2520    -0.1970 c6         1 SZ3      -0.073400
      5 C3          -0.7470    -1.2510     0.1870 c6         1 SZ3      -0.091900
      6 C4          -1.4390     0.0050    -0.3160 c6         1 SZ3       0.170300
      7 C5          -0.7300     1.2530     0.2010 c6         1 SZ3      -0.091900
      8 C6           0.7450     1.2460    -0.1860 c6         1 SZ3      -0.073400
      9 HN           3.3200     0.7820     0.2450 hn         1 SZ3       0.393500
     10 HNA          3.3070    -0.8300     0.2340 hn         1 SZ3       0.393500
     11 H1           1.3680    -0.0140     1.4160 h1         1 SZ3       0.014700
     12 H2           0.8330    -1.2960    -1.2870 hc         1 SZ3       0.047950
     13 H2A          1.2120    -2.1510     0.1980 hc         1 SZ3       0.047950
     14 H3          -1.2400    -2.1370    -0.2210 hc         1 SZ3       0.048450
     15 H3A         -0.8470    -1.3050     1.2770 hc         1 SZ3       0.048450
     16 H4          -1.3680     0.0110    -1.4160 h1         1 SZ3       0.029700
     17 H5          -1.2150     2.1500    -0.1970 hc         1 SZ3       0.048450
     18 H5A         -0.8320     1.2960     1.2910 hc         1 SZ3       0.048450
     19 H6           1.2380     2.1360     0.2150 hc         1 SZ3       0.047950
     20 H6A          0.8480     1.2980    -1.2760 hc         1 SZ3       0.047950
     21 HO          -3.2350     0.7410    -0.2440 ho         1 SZ3       0.441000
@<TRIPOS>BOND
     1     1     3 1   
     2     1     9 1   
     3     1    10 1   
     4     2     6 1   
     5     2    21 1   
     6     3     4 1   
     7     3     8 1   
     8     3    11 1   
     9     4     5 1   
    10     4    12 1   
    11     4    13 1   
    12     5     6 1   
    13     5    14 1   
    14     5    15 1   
    15     6     7 1   
    16     6    16 1   
    17     7     8 1   
    18     7    17 1   
    19     7    18 1   
    20     8    19 1   
    21     8    20 1   
@<TRIPOS>SUBSTRUCTURE
     1 SZ3         1 TEMP              0 ****  ****    0 ROOT
