@<TRIPOS>MOLECULE
SZ3
   21    21     1     0     0
SMALL
No Charge or Current Charge


@<TRIPOS>ATOM
      1 N            2.8760    -0.0130    -0.1260 n8         1 SZ3      -0.999200
      2 O           -2.8310    -0.0060     0.1270 oh         1 SZ3      -0.661000
      3 C1           1.4640    -0.0130     0.2940 c6         1 SZ3       0.162500
      4 C2           0.7420    -1.2860    -0.2190 c6         1 SZ3      -0.073400
      5 C3          -0.7540    -1.2830     0.1860 c6         1 SZ3      -0.091900
      6 C4          -1.4720    -0.0030    -0.3150 c6         1 SZ3       0.170300
      7 C5          -0.7490     1.2690     0.2000 c6         1 SZ3      -0.091900
      8 C6           0.7480     1.2700    -0.2050 c6         1 SZ3      -0.073400
      9 HN           3.3470     0.7890     0.3090 hn         1 SZ3       0.393500
     10 HNA          3.3440    -0.8220     0.2990 hn         1 SZ3       0.393500
     11 H1           1.4550    -0.0180     1.3940 h1         1 SZ3       0.014700
     12 H2           0.8250    -1.3500    -1.3130 hc         1 SZ3       0.047950
     13 H2A          1.2290    -2.1840     0.1850 hc         1 SZ3       0.047950
     14 H3          -1.2500    -2.1730    -0.2240 hc         1 SZ3       0.048450
     15 H3A         -0.8390    -1.3540     1.2800 hc         1 SZ3       0.048450
     16 H4          -1.4410     0.0010    -1.4150 h1         1 SZ3       0.029700
     17 H5          -1.2380     2.1670    -0.2010 hc         1 SZ3       0.048450
     18 H5A         -0.8330     1.3290     1.2940 hc         1 SZ3       0.048450
     19 H6           1.2390     2.1610     0.2090 hc         1 SZ3       0.047950
     20 H6A          0.8310     1.3450    -1.2990 hc         1 SZ3       0.047950
     21 HO          -3.2580     0.7840    -0.2720 ho         1 SZ3       0.441000
@<TRIPOS>BOND
     1     1     3 1   
     2     1     9 1   
     3     1    10 1   
     4     2     6 1   
     5     2    21 1   
     6     3     4 1   
     7     3     8 1   
     8     3    11 1   
     9     4     5 1   
    10     4    12 1   
    11     4    13 1   
    12     5     6 1   
    13     5    14 1   
    14     5    15 1   
    15     6     7 1   
    16     6    16 1   
    17     7     8 1   
    18     7    17 1   
    19     7    18 1   
    20     8    19 1   
    21     8    20 1   
@<TRIPOS>SUBSTRUCTURE
     1 SZ3         1 TEMP              0 ****  ****    0 ROOT
