@<TRIPOS>MOLECULE
SZ4
   21    21     1     0     0
SMALL
No Charge or Current Charge


@<TRIPOS>ATOM
      1 N            3.2690     1.0170    -0.7010 n8         1 SZ4      -0.999200
      2 O           -2.1960     1.0760     0.0070 os         1 SZ4      -0.342100
      3 C1           2.6710     0.4970     0.5440 c3         1 SZ4       0.197100
      4 C2           1.2870    -0.0960     0.3010 ca         1 SZ4      -0.053300
      5 C3           1.1260    -1.4840     0.1250 ca         1 SZ4      -0.151000
      6 C4          -0.1510    -2.0290    -0.0930 ca         1 SZ4      -0.075000
      7 C5          -1.2780    -1.1900    -0.1360 ca         1 SZ4      -0.198000
      8 C6          -1.1270     0.2030     0.0390 ca         1 SZ4       0.135100
      9 C7          -3.5460     0.6270    -0.2090 c3         1 SZ4       0.149900
     10 C8           0.1540     0.7390     0.2560 ca         1 SZ4      -0.123000
     11 HN           4.2320     1.3180    -0.5060 hn         1 SZ4       0.397000
     12 HNA          3.3870     0.2350    -1.3570 hn         1 SZ4       0.397000
     13 H1           3.3360    -0.2710     0.9630 h1         1 SZ4       0.035700
     14 H1A          2.5990     1.3180     1.2720 h1         1 SZ4       0.035700
     15 H3           1.9910    -2.1420     0.1570 ha         1 SZ4       0.110000
     16 H4          -0.2660    -3.1020    -0.2280 ha         1 SZ4       0.109000
     17 H5          -2.2530    -1.6370    -0.3060 ha         1 SZ4       0.115000
     18 H7          -3.8550    -0.0710     0.5780 h1         1 SZ4       0.038700
     19 H7A         -4.2360     1.4800    -0.1980 h1         1 SZ4       0.038700
     20 H7B         -3.6400     0.1270    -1.1820 h1         1 SZ4       0.038700
     21 H8           0.2660     1.8120     0.3890 ha         1 SZ4       0.145000
@<TRIPOS>BOND
     1     1     3 1   
     2     1    11 1   
     3     1    12 1   
     4     2     8 1   
     5     2     9 1   
     6     3     4 1   
     7     3    13 1   
     8     3    14 1   
     9     4     5 ar  
    10     4    10 ar  
    11     5     6 ar  
    12     5    15 1   
    13     6     7 ar  
    14     6    16 1   
    15     7     8 ar  
    16     7    17 1   
    17     8    10 ar  
    18     9    18 1   
    19     9    19 1   
    20     9    20 1   
    21    10    21 1   
@<TRIPOS>SUBSTRUCTURE
     1 SZ4         1 TEMP              0 ****  ****    0 ROOT
