@<TRIPOS>MOLECULE
SZ4
   21    21     1     0     0
SMALL
abcg2


@<TRIPOS>ATOM
      1 N            2.9360     1.5020    -0.3500 n8         1 SZ4      -0.999200
      2 O           -2.0100     1.0840    -0.2500 os         1 SZ4      -0.342100
      3 C1           2.7280     0.2420     0.3380 c3         1 SZ4       0.197100
      4 C2           1.3110    -0.2610     0.2130 ca         1 SZ4      -0.053300
      5 C3           1.0480    -1.6280     0.3220 ca         1 SZ4      -0.151000
      6 C4          -0.2540    -2.0910     0.2460 ca         1 SZ4      -0.075000
      7 C5          -1.3190    -1.2180     0.0550 ca         1 SZ4      -0.198000
      8 C6          -1.0600     0.1450    -0.0610 ca         1 SZ4       0.135100
      9 C7          -3.3570     0.6690    -0.3430 c3         1 SZ4       0.149900
     10 C8           0.2540     0.6140     0.0190 ca         1 SZ4      -0.123000
     11 HN           3.8600     1.8530    -0.1350 hn         1 SZ4       0.397000
     12 HNA          2.9200     1.3510    -1.3510 hn         1 SZ4       0.397000
     13 H1           3.4080    -0.5580     0.0180 h1         1 SZ4       0.035700
     14 H1A          2.9400     0.4030     1.3990 h1         1 SZ4       0.035700
     15 H3           1.8640    -2.3270     0.4600 ha         1 SZ4       0.110000
     16 H4          -0.4530    -3.1520     0.3280 ha         1 SZ4       0.109000
     17 H5          -2.3240    -1.6130    -0.0060 ha         1 SZ4       0.115000
     18 H7          -3.6980     0.1790     0.5730 h1         1 SZ4       0.038700
     19 H7A         -3.9490     1.5680    -0.5000 h1         1 SZ4       0.038700
     20 H7B         -3.5190    -0.0100    -1.1830 h1         1 SZ4       0.038700
     21 H8           0.4450     1.6760    -0.0780 ha         1 SZ4       0.145000
@<TRIPOS>BOND
     1     1     3 1   
     2     1    11 1   
     3     1    12 1   
     4     2     8 1   
     5     2     9 1   
     6     3     4 1   
     7     3    13 1   
     8     3    14 1   
     9     4     5 ar  
    10     4    10 ar  
    11     5     6 ar  
    12     5    15 1   
    13     6     7 ar  
    14     6    16 1   
    15     7     8 ar  
    16     7    17 1   
    17     8    10 ar  
    18     9    18 1   
    19     9    19 1   
    20     9    20 1   
    21    10    21 1   
@<TRIPOS>SUBSTRUCTURE
     1 SZ4         1 TEMP              0 ****  ****    0 ROOT
