@<TRIPOS>MOLECULE
SZ5
   30    32     1     0     0
SMALL
abcg2


@<TRIPOS>ATOM
      1 CAD         -2.2130    -1.2280     0.0200 ca         1 SZ5      -0.067000
      2 CAC         -3.5870    -1.3800     0.0150 ca         1 SZ5      -0.120500
      3 CAB         -4.4350    -0.2730     0.0000 ca         1 SZ5      -0.047300
      4 CAA         -5.9240    -0.4390     0.0290 c3         1 SZ5      -0.052800
      5 CAG         -3.8530     0.9920    -0.0160 ca         1 SZ5      -0.120500
      6 CAF         -2.4770     1.1510    -0.0110 ca         1 SZ5      -0.067000
      7 CAE         -1.6320     0.0420     0.0090 ca         1 SZ5      -0.157900
      8 CAH         -0.1610     0.1480     0.0160 cc         1 SZ5       0.569500
      9 NAI          0.5510    -0.9250     0.0000 nd         1 SZ5      -0.640100
     10 CAJ          1.9160    -0.8060     0.0110 ca         1 SZ5       0.195400
     11 CAO          2.6940    -1.9730    -0.0030 ca         1 SZ5      -0.107000
     12 CAN          4.0690    -1.8890     0.0080 ca         1 SZ5      -0.074000
     13 CAM          4.7100    -0.6440     0.0330 ca         1 SZ5      -0.136000
     14 CAL          3.9610     0.5120     0.0480 ca         1 SZ5      -0.039000
     15 CAK          2.5660     0.4390     0.0370 ca         1 SZ5      -0.206600
     16 CAP          1.7540     1.6460     0.0530 c          1 SZ5       0.578600
     17 OAQ          2.1780     2.7880     0.0750 o          1 SZ5      -0.540000
     18 NAR          0.3990     1.3930     0.0430 ns         1 SZ5      -0.427400
     19 HAD         -1.5760    -2.1010     0.0310 ha         1 SZ5       0.126000
     20 HAC         -4.0070    -2.3780     0.0200 ha         1 SZ5       0.118000
     21 HAA1        -6.2860    -0.4740     1.0580 hc         1 SZ5       0.047367
     22 HAA2        -6.4300     0.3900    -0.4640 hc         1 SZ5       0.047367
     23 HAA3        -6.2320    -1.3650    -0.4550 hc         1 SZ5       0.047367
     24 HAG         -4.4840     1.8720    -0.0360 ha         1 SZ5       0.118000
     25 HAF         -2.0980     2.1650    -0.0300 ha         1 SZ5       0.126000
     26 HAR         -0.1950     2.2100     0.0590 hn         1 SZ5       0.330500
     27 HAO          2.1940    -2.9330    -0.0250 ha         1 SZ5       0.131000
     28 HAN          4.6610    -2.7940    -0.0020 ha         1 SZ5       0.116000
     29 HAM          5.7900    -0.5930     0.0410 ha         1 SZ5       0.119000
     30 HAL          4.4460     1.4790     0.0680 ha         1 SZ5       0.135000
@<TRIPOS>BOND
     1     1     2 ar  
     2     1     7 ar  
     3     1    19 1   
     4     2     3 ar  
     5     2    20 1   
     6     3     4 1   
     7     3     5 ar  
     8     4    21 1   
     9     4    22 1   
    10     4    23 1   
    11     5     6 ar  
    12     5    24 1   
    13     6     7 ar  
    14     6    25 1   
    15     7     8 1   
    16     8     9 2   
    17     8    18 1   
    18     9    10 1   
    19    10    11 ar  
    20    10    15 ar  
    21    11    12 ar  
    22    11    27 1   
    23    12    13 ar  
    24    12    28 1   
    25    13    14 ar  
    26    13    29 1   
    27    14    15 ar  
    28    14    30 1   
    29    15    16 1   
    30    16    17 2   
    31    16    18 1   
    32    18    26 1   
@<TRIPOS>SUBSTRUCTURE
     1 SZ5         1 TEMP              0 ****  ****    0 ROOT
