@<TRIPOS>MOLECULE
SZ5
   30    32     1     0     0
SMALL
No Charge or Current Charge


@<TRIPOS>ATOM
      1 CAD         -2.2800    -1.2420     0.3930 ca         1 SZ5      -0.067000
      2 CAC         -3.6810    -1.3430     0.3600 ca         1 SZ5      -0.120500
      3 CAB         -4.4670    -0.2390    -0.0110 ca         1 SZ5      -0.047300
      4 CAA         -5.9830    -0.3500    -0.0450 c3         1 SZ5      -0.052800
      5 CAG         -3.8340     0.9680    -0.3550 ca         1 SZ5      -0.120500
      6 CAF         -2.4330     1.0740    -0.3220 ca         1 SZ5      -0.067000
      7 CAE         -1.6320    -0.0250     0.0740 ca         1 SZ5      -0.157900
      8 CAH         -0.1610     0.0580     0.0760 cc         1 SZ5       0.569500
      9 NAI          0.5750    -1.0380    -0.1270 nd         1 SZ5      -0.640100
     10 CAJ          1.9640    -0.8330    -0.0930 ca         1 SZ5       0.195400
     11 CAO          2.7920    -1.9500    -0.3120 ca         1 SZ5      -0.107000
     12 CAN          4.1920    -1.8270    -0.2970 ca         1 SZ5      -0.074000
     13 CAM          4.7810    -0.5760    -0.0590 ca         1 SZ5      -0.136000
     14 CAL          3.9690     0.5480     0.1630 ca         1 SZ5      -0.039000
     15 CAK          2.5640     0.4180     0.1450 ca         1 SZ5      -0.206600
     16 CAP          1.6840     1.5850     0.3830 c          1 SZ5       0.578600
     17 OAQ          2.0890     2.7140     0.6120 o          1 SZ5      -0.540000
     18 NAR          0.3660     1.2970     0.3300 ns         1 SZ5      -0.427400
     19 HAD         -1.6990    -2.1160     0.6820 ha         1 SZ5       0.126000
     20 HAC         -4.1560    -2.2860     0.6230 ha         1 SZ5       0.118000
     21 HAA1        -6.4160    -0.0720     0.9230 hc         1 SZ5       0.047367
     22 HAA2        -6.4150     0.3100    -0.8080 hc         1 SZ5       0.047367
     23 HAA3        -6.3050    -1.3720    -0.2760 hc         1 SZ5       0.047367
     24 HAG         -4.4290     1.8270    -0.6560 ha         1 SZ5       0.118000
     25 HAF         -1.9800     2.0170    -0.6220 ha         1 SZ5       0.126000
     26 HAR         -0.2610     2.0640     0.5140 hn         1 SZ5       0.330500
     27 HAO          2.3430    -2.9220    -0.4980 ha         1 SZ5       0.131000
     28 HAN          4.8170    -2.7000    -0.4680 ha         1 SZ5       0.116000
     29 HAM          5.8640    -0.4760    -0.0450 ha         1 SZ5       0.119000
     30 HAL          4.4330     1.5160     0.3490 ha         1 SZ5       0.135000
@<TRIPOS>BOND
     1     1     2 ar  
     2     1     7 ar  
     3     1    19 1   
     4     2     3 ar  
     5     2    20 1   
     6     3     4 1   
     7     3     5 ar  
     8     4    21 1   
     9     4    22 1   
    10     4    23 1   
    11     5     6 ar  
    12     5    24 1   
    13     6     7 ar  
    14     6    25 1   
    15     7     8 1   
    16     8     9 2   
    17     8    18 1   
    18     9    10 1   
    19    10    11 ar  
    20    10    15 ar  
    21    11    12 ar  
    22    11    27 1   
    23    12    13 ar  
    24    12    28 1   
    25    13    14 ar  
    26    13    29 1   
    27    14    15 ar  
    28    14    30 1   
    29    15    16 1   
    30    16    17 2   
    31    16    18 1   
    32    18    26 1   
@<TRIPOS>SUBSTRUCTURE
     1 SZ5         1 TEMP              0 ****  ****    0 ROOT
