@<TRIPOS>MOLECULE
SZ6
   62    65     1     0     0
SMALL
No Charge or Current Charge


@<TRIPOS>ATOM
      1 C8          -3.1950     3.2620     2.3160 c3         1 SZ6      -0.038800
      2 C2          -4.2930     3.0000     1.2890 ca         1 SZ6      -0.168300
      3 C1          -5.3650     3.9100     1.1870 ca         1 SZ6       0.109900
      4 N6          -6.3430     3.7620     0.2720 nb         1 SZ6      -0.156000
      5 C5          -6.2370     2.6980    -0.5470 ca         1 SZ6       0.214000
      6 Cl7         -7.4980     2.5020    -1.7540 cl         1 SZ6      -0.126000
      7 N4          -5.2600     1.7720    -0.5380 nb         1 SZ6      -0.164000
      8 C3          -4.2860     1.8960     0.3870 cp         1 SZ6       0.194500
      9 C9          -3.2270     0.8370     0.3720 cp         1 SZ6      -0.160500
     10 C14         -2.8120     0.1880     1.5600 ca         1 SZ6      -0.072000
     11 C13         -1.8230    -0.8100     1.5360 ca         1 SZ6      -0.106000
     12 C10         -2.6420     0.4100    -0.8440 ca         1 SZ6      -0.072000
     13 C11         -1.6520    -0.5860    -0.8640 ca         1 SZ6      -0.106000
     14 C12         -1.1780    -1.1650     0.3320 ca         1 SZ6      -0.029000
     15 N15         -0.2610    -2.2830     0.2530 n          1 SZ6      -0.243400
     16 C16         -0.4400    -3.5130     0.9560 c          1 SZ6       0.641700
     17 O19         -1.3100    -3.6620     1.8080 o          1 SZ6      -0.571100
     18 C18          0.4190    -4.6960     0.6010 ca         1 SZ6      -0.221600
     19 C28          1.1840    -5.3070     1.6140 ca         1 SZ6      -0.002000
     20 C29          1.9880    -6.4190     1.3150 ca         1 SZ6      -0.188000
     21 C30          2.0160    -6.9340     0.0140 ca         1 SZ6       0.199100
     22 O33          2.7940    -8.0120    -0.2690 oh         1 SZ6      -0.525100
     23 C31          1.2340    -6.3540    -0.9910 ca         1 SZ6      -0.314000
     24 C32          0.4310    -5.2430    -0.6980 ca         1 SZ6       0.207100
     25 O34         -0.3630    -4.7350    -1.6760 oh         1 SZ6      -0.527100
     26 C17          0.9470    -2.1030    -0.5990 c3         1 SZ6       0.164300
     27 C20          1.5810    -0.7180    -0.4910 ca         1 SZ6      -0.103300
     28 C25          2.0840    -0.2660     0.7440 ca         1 SZ6      -0.096000
     29 C24          2.6580     1.0120     0.8530 ca         1 SZ6      -0.095000
     30 C21          1.6650     0.1220    -1.6190 ca         1 SZ6      -0.096000
     31 C22          2.2400     1.4000    -1.5100 ca         1 SZ6      -0.095000
     32 C23          2.7370     1.8530    -0.2730 ca         1 SZ6      -0.118300
     33 C26          3.3600     3.2340    -0.1570 c3         1 SZ6       0.147300
     34 N27          4.7960     3.1820    -0.4190 ns         1 SZ6      -0.488900
     35 C35          5.6340     4.2760    -0.3870 c          1 SZ6       0.551100
     36 O37          5.2190     5.3990    -0.1310 o          1 SZ6      -0.572100
     37 C36          7.1170     3.9860    -0.6960 c3         1 SZ6       0.093300
     38 F39          7.6400     3.1040     0.1900 f          1 SZ6      -0.110000
     39 F38          7.2660     3.4500    -1.9320 f          1 SZ6      -0.110000
     40 H81C        -3.3930     2.7280     3.2520 hc         1 SZ6       0.050367
     41 H82C        -2.2110     2.9480     1.9450 hc         1 SZ6       0.050367
     42 H83C        -3.1200     4.3300     2.5560 hc         1 SZ6       0.050367
     43 H1          -5.4390     4.7780     1.8400 h4         1 SZ6       0.029100
     44 H14         -3.2750     0.4460     2.5090 ha         1 SZ6       0.124500
     45 H10         -2.9610     0.8560    -1.7850 ha         1 SZ6       0.124500
     46 H13         -1.5340    -1.2760     2.4740 ha         1 SZ6       0.126500
     47 H11         -1.2500    -0.9030    -1.8230 ha         1 SZ6       0.126500
     48 H171         1.7230    -2.8260    -0.3210 h1         1 SZ6       0.060700
     49 H172         0.6740    -2.3010    -1.6420 h1         1 SZ6       0.060700
     50 H28          1.1640    -4.9130     2.6290 ha         1 SZ6       0.129000
     51 H29          2.5870    -6.8810     2.0950 ha         1 SZ6       0.137000
     52 H33          2.6780    -8.2260    -1.2190 ho         1 SZ6       0.469000
     53 H31          1.2430    -6.7700    -1.9950 ha         1 SZ6       0.117000
     54 H34         -0.2560    -5.2940    -2.4740 ho         1 SZ6       0.470000
     55 H25          2.0250    -0.9040     1.6230 ha         1 SZ6       0.118000
     56 H21          1.2830    -0.2120    -2.5810 ha         1 SZ6       0.118000
     57 H24          3.0420     1.3480     1.8140 ha         1 SZ6       0.121000
     58 H22          2.2980     2.0380    -2.3890 ha         1 SZ6       0.121000
     59 H261         2.8890     3.9190    -0.8760 h1         1 SZ6       0.065700
     60 H262         3.1940     3.6360     0.8520 h1         1 SZ6       0.065700
     61 H27          5.2140     2.2850    -0.6390 hn         1 SZ6       0.332500
     62 H36          7.6860     4.9200    -0.6440 h2         1 SZ6       0.080700
@<TRIPOS>BOND
     1     1     2 1   
     2     1    40 1   
     3     1    41 1   
     4     1    42 1   
     5     2     3 ar  
     6     2     8 ar  
     7     3     4 ar  
     8     3    43 1   
     9     4     5 ar  
    10     5     6 1   
    11     5     7 ar  
    12     7     8 ar  
    13     8     9 1   
    14     9    10 ar  
    15     9    12 ar  
    16    10    11 ar  
    17    10    44 1   
    18    11    14 ar  
    19    11    46 1   
    20    12    13 ar  
    21    12    45 1   
    22    13    14 ar  
    23    13    47 1   
    24    14    15 1   
    25    15    16 1   
    26    15    26 1   
    27    16    17 2   
    28    16    18 1   
    29    18    19 ar  
    30    18    24 ar  
    31    19    20 ar  
    32    19    50 1   
    33    20    21 ar  
    34    20    51 1   
    35    21    22 1   
    36    21    23 ar  
    37    22    52 1   
    38    23    24 ar  
    39    23    53 1   
    40    24    25 1   
    41    25    54 1   
    42    26    27 1   
    43    26    48 1   
    44    26    49 1   
    45    27    28 ar  
    46    27    30 ar  
    47    28    29 ar  
    48    28    55 1   
    49    29    32 ar  
    50    29    57 1   
    51    30    31 ar  
    52    30    56 1   
    53    31    32 ar  
    54    31    58 1   
    55    32    33 1   
    56    33    34 1   
    57    33    59 1   
    58    33    60 1   
    59    34    35 1   
    60    34    61 1   
    61    35    36 2   
    62    35    37 1   
    63    37    38 1   
    64    37    39 1   
    65    37    62 1   
@<TRIPOS>SUBSTRUCTURE
     1 SZ6         1 TEMP              0 ****  ****    0 ROOT
