@<TRIPOS>MOLECULE
SZ6
   62    65     1     0     0
SMALL
bcc


@<TRIPOS>ATOM
      1 C8          -2.7760     3.7660     0.9050 c3         1 SZ6      -0.038800
      2 C2          -4.1320     3.1670     0.6930 ca         1 SZ6      -0.298900
      3 C1          -5.2580     3.9800     0.7280 ca         1 SZ6       0.438200
      4 N6          -6.4930     3.5450     0.5190 nb         1 SZ6      -0.682000
      5 C5          -6.5890     2.2640     0.2480 ca         1 SZ6       0.740000
      6 CL7         -8.1850     1.6670    -0.0540 cl         1 SZ6      -0.126000
      7 N4          -5.6240     1.3850     0.1780 nb         1 SZ6      -0.690000
      8 C3          -4.3820     1.8170     0.4130 cp         1 SZ6       0.522800
      9 C9          -3.3260     0.7910     0.3140 cp         1 SZ6      -0.160500
     10 C14         -2.2850     0.7180     1.2360 ca         1 SZ6      -0.090000
     11 C13         -1.3170    -0.2680     1.1300 ca         1 SZ6      -0.124000
     12 C10         -3.3900    -0.1530    -0.7120 ca         1 SZ6      -0.090000
     13 C11         -2.4140    -1.1280    -0.8280 ca         1 SZ6      -0.124000
     14 C12         -1.3770    -1.1880     0.0930 ca         1 SZ6       0.063600
     15 N15         -0.3680    -2.1760    -0.0670 n          1 SZ6      -0.403000
     16 C16         -0.4950    -3.3380     0.6200 c          1 SZ6       0.708700
     17 O19         -1.3760    -3.4950     1.4500 o          1 SZ6      -0.571100
     18 C18          0.4870    -4.4250     0.3380 ca         1 SZ6      -0.221600
     19 C28          1.3250    -4.8780     1.3510 ca         1 SZ6      -0.020000
     20 C29          2.2010    -5.9290     1.1560 ca         1 SZ6      -0.206000
     21 C30          2.2220    -6.5730    -0.0810 ca         1 SZ6       0.199100
     22 O33          3.0780    -7.5960    -0.2390 oh         1 SZ6      -0.486100
     23 C31          1.3700    -6.1580    -1.1000 ca         1 SZ6      -0.332000
     24 C32          0.5030    -5.0920    -0.8890 ca         1 SZ6       0.207100
     25 O34         -0.3500    -4.6640    -1.8360 oh         1 SZ6      -0.488100
     26 C17          0.7410    -1.8150    -0.9420 c3         1 SZ6       0.164300
     27 C20          1.5360    -0.6680    -0.3760 ca         1 SZ6      -0.103300
     28 C25          2.3690    -0.8710     0.7190 ca         1 SZ6      -0.114000
     29 C24          3.0860     0.1830     1.2640 ca         1 SZ6      -0.113000
     30 C21          1.4290     0.6110    -0.9080 ca         1 SZ6      -0.114000
     31 C22          2.1450     1.6680    -0.3640 ca         1 SZ6      -0.113000
     32 C23          2.9840     1.4640     0.7270 ca         1 SZ6      -0.118300
     33 C26          3.8010     2.5940     1.2990 c3         1 SZ6       0.147300
     34 N27          5.0280     2.8100     0.5540 ns         1 SZ6      -0.555900
     35 C35          5.1340     3.6970    -0.4330 c          1 SZ6       0.618100
     36 O37          4.2560     4.4540    -0.8110 o          1 SZ6      -0.572100
     37 C36          6.5130     3.7960    -1.0890 c3         1 SZ6       0.335900
     38 F39          7.2690     2.6940    -0.8420 f          1 SZ6      -0.231300
     39 F38          6.3450     3.8780    -2.4300 f          1 SZ6      -0.231300
     40 H81C        -2.4490     3.6660     1.9400 hc         1 SZ6       0.050367
     41 H82C        -2.0220     3.2990     0.2730 hc         1 SZ6       0.050367
     42 H83C        -2.7960     4.8300     0.6770 hc         1 SZ6       0.050367
     43 H1          -5.1500     5.0420     0.9250 h4         1 SZ6       0.029100
     44 H14         -2.2330     1.4110     2.0640 ha         1 SZ6       0.142500
     45 H10         -4.1990    -0.1160    -1.4280 ha         1 SZ6       0.142500
     46 H13         -0.5140    -0.3190     1.8530 ha         1 SZ6       0.144500
     47 H11         -2.4580    -1.8490    -1.6340 ha         1 SZ6       0.144500
     48 H171         1.3900    -2.6790    -1.0670 h1         1 SZ6       0.060700
     49 H172         0.3520    -1.5580    -1.9300 h1         1 SZ6       0.060700
     50 H28          1.3030    -4.3860     2.3150 ha         1 SZ6       0.147000
     51 H29          2.8580    -6.2550     1.9510 ha         1 SZ6       0.155000
     52 H33          3.0120    -7.9630    -1.1280 ho         1 SZ6       0.430000
     53 H31          1.3730    -6.6700    -2.0570 ha         1 SZ6       0.135000
     54 H34         -0.2420    -5.1700    -2.6500 ho         1 SZ6       0.431000
     55 H25          2.4640    -1.8610     1.1530 ha         1 SZ6       0.136000
     56 H21          0.7710     0.7850    -1.7510 ha         1 SZ6       0.136000
     57 H24          3.7330     0.0090     2.1160 ha         1 SZ6       0.139000
     58 H22          2.0490     2.6580    -0.7920 ha         1 SZ6       0.139000
     59 H261         3.2310     3.5220     1.3060 h1         1 SZ6       0.065700
     60 H262         4.0780     2.3750     2.3300 h1         1 SZ6       0.065700
     61 H27          5.7980     2.1900     0.7490 hn         1 SZ6       0.332500
     62 H36          7.0550     4.6780    -0.7440 h2         1 SZ6       0.080700
@<TRIPOS>BOND
     1     1     2 1   
     2     1    40 1   
     3     1    41 1   
     4     1    42 1   
     5     2     3 ar  
     6     2     8 ar  
     7     3     4 ar  
     8     3    43 1   
     9     4     5 ar  
    10     5     6 1   
    11     5     7 ar  
    12     7     8 ar  
    13     8     9 1   
    14     9    10 ar  
    15     9    12 ar  
    16    10    11 ar  
    17    10    44 1   
    18    11    14 ar  
    19    11    46 1   
    20    12    13 ar  
    21    12    45 1   
    22    13    14 ar  
    23    13    47 1   
    24    14    15 1   
    25    15    16 1   
    26    15    26 1   
    27    16    17 2   
    28    16    18 1   
    29    18    19 ar  
    30    18    24 ar  
    31    19    20 ar  
    32    19    50 1   
    33    20    21 ar  
    34    20    51 1   
    35    21    22 1   
    36    21    23 ar  
    37    22    52 1   
    38    23    24 ar  
    39    23    53 1   
    40    24    25 1   
    41    25    54 1   
    42    26    27 1   
    43    26    48 1   
    44    26    49 1   
    45    27    28 ar  
    46    27    30 ar  
    47    28    29 ar  
    48    28    55 1   
    49    29    32 ar  
    50    29    57 1   
    51    30    31 ar  
    52    30    56 1   
    53    31    32 ar  
    54    31    58 1   
    55    32    33 1   
    56    33    34 1   
    57    33    59 1   
    58    33    60 1   
    59    34    35 1   
    60    34    61 1   
    61    35    36 2   
    62    35    37 1   
    63    37    38 1   
    64    37    39 1   
    65    37    62 1   
@<TRIPOS>SUBSTRUCTURE
     1 SZ6         1 TEMP              0 ****  ****    0 ROOT
