@<TRIPOS>MOLECULE
SZ7
   23    24     1     0     0
SMALL
abcg2


@<TRIPOS>ATOM
      1 C4          24.7710    16.6750   -17.8210 ce         1 SZ7       0.414800
      2 C5          25.5130    16.0250   -14.4500 c          1 SZ7       0.660100
      3 C6          24.9010    14.6870   -14.2920 cx         1 SZ7      -0.227700
      4 N1          25.4240    16.6160   -15.6750 ns         1 SZ7      -0.268900
      5 C7          24.2820    14.3660   -12.9530 cx         1 SZ7      -0.101400
      6 C8          25.5670    13.7320   -13.3320 cx         1 SZ7      -0.101400
      7 O           26.0820    16.6100   -13.5420 o          1 SZ7      -0.591100
      8 N           24.8130    16.0390   -16.7190 n2         1 SZ7      -0.448300
      9 C2          24.1280    16.0950   -18.9740 cc         1 SZ7      -0.268900
     10 C1          23.9980    16.6590   -20.2150 cd         1 SZ7      -0.111000
     11 S           23.4070    14.5290   -18.9220 ss         1 SZ7       0.262000
     12 C3          22.9340    14.6380   -20.5650 cc         1 SZ7      -0.246000
     13 C           23.3110    15.8190   -21.1290 cd         1 SZ7      -0.134000
     14 H1          25.2070    17.6660   -17.9530 h4         1 SZ7      -0.003200
     15 H2          24.4310    14.2540   -15.1620 hc         1 SZ7       0.112700
     16 H3          25.8460    17.5350   -15.7780 hn         1 SZ7       0.310500
     17 H4          23.3820    13.7670   -12.9710 hc         1 SZ7       0.080700
     18 H5          24.2980    15.1410   -12.1980 hc         1 SZ7       0.080700
     19 H6          25.5660    12.6880   -13.6160 hc         1 SZ7       0.080700
     20 H7          26.4700    14.0670   -12.8390 hc         1 SZ7       0.080700
     21 H8          24.3810    17.6390   -20.4600 ha         1 SZ7       0.134000
     22 H9          22.4020    13.8220   -21.0300 h4         1 SZ7       0.151000
     23 H10         23.1080    16.0820   -22.1560 ha         1 SZ7       0.136000
@<TRIPOS>BOND
     1     1     8 2   
     2     1     9 1   
     3     1    14 1   
     4     2     3 1   
     5     2     4 1   
     6     2     7 2   
     7     3     5 1   
     8     3     6 1   
     9     3    15 1   
    10     4     8 1   
    11     4    16 1   
    12     5     6 1   
    13     5    17 1   
    14     5    18 1   
    15     6    19 1   
    16     6    20 1   
    17     9    10 2   
    18     9    11 1   
    19    10    13 1   
    20    10    21 1   
    21    11    12 1   
    22    12    13 2   
    23    12    22 1   
    24    13    23 1   
@<TRIPOS>SUBSTRUCTURE
     1 SZ7         1 TEMP              0 ****  ****    0 ROOT
