@<TRIPOS>MOLECULE
SZ7
   23    24     1     0     0
SMALL
No Charge or Current Charge


@<TRIPOS>ATOM
      1 C4          25.0180    16.5480   -17.5560 ce         1 SZ7       0.414800
      2 C5          25.6290    16.3820   -14.3730 c          1 SZ7       0.660100
      3 C6          24.4350    15.4420   -14.3560 cx         1 SZ7      -0.227700
      4 N1          26.2610    16.5780   -15.5970 ns         1 SZ7      -0.268900
      5 C7          24.2200    14.5360   -13.1570 cx         1 SZ7      -0.101400
      6 C8          24.6750    13.9490   -14.4720 cx         1 SZ7      -0.101400
      7 O           26.0160    16.9580   -13.3650 o          1 SZ7      -0.591100
      8 N           25.8890    15.9690   -16.7890 n2         1 SZ7      -0.448300
      9 C2          24.4430    15.8660   -18.7090 cc         1 SZ7      -0.268900
     10 C1          23.4910    16.3330   -19.5840 cd         1 SZ7      -0.111000
     11 S           24.9290    14.2250   -19.1380 ss         1 SZ7       0.262000
     12 C3          23.8240    14.2160   -20.5090 cc         1 SZ7      -0.246000
     13 C           23.1440    15.4030   -20.6000 cd         1 SZ7      -0.134000
     14 H1          24.6360    17.5510   -17.3530 h4         1 SZ7      -0.003200
     15 H2          23.5450    15.8380   -14.8360 hc         1 SZ7       0.112700
     16 H3          27.0550    17.2100   -15.5640 hn         1 SZ7       0.310500
     17 H4          23.1960    14.3430   -12.8440 hc         1 SZ7       0.080700
     18 H5          24.9420    14.5720   -12.3440 hc         1 SZ7       0.080700
     19 H6          23.9580    13.3640   -15.0430 hc         1 SZ7       0.080700
     20 H7          25.7030    13.5990   -14.5420 hc         1 SZ7       0.080700
     21 H8          23.0450    17.3210   -19.5080 ha         1 SZ7       0.134000
     22 H9          23.7610    13.3380   -21.1390 h4         1 SZ7       0.151000
     23 H10         22.4090    15.6110   -21.3730 ha         1 SZ7       0.136000
@<TRIPOS>BOND
     1     1     8 2   
     2     1     9 1   
     3     1    14 1   
     4     2     3 1   
     5     2     4 1   
     6     2     7 2   
     7     3     5 1   
     8     3     6 1   
     9     3    15 1   
    10     4     8 1   
    11     4    16 1   
    12     5     6 1   
    13     5    17 1   
    14     5    18 1   
    15     6    19 1   
    16     6    20 1   
    17     9    10 2   
    18     9    11 1   
    19    10    13 1   
    20    10    21 1   
    21    11    12 1   
    22    12    13 2   
    23    12    22 1   
    24    13    23 1   
@<TRIPOS>SUBSTRUCTURE
     1 SZ7         1 TEMP              0 ****  ****    0 ROOT
