@<TRIPOS>MOLECULE
SZ8
   25    25     1     0     0
SMALL
No Charge or Current Charge


@<TRIPOS>ATOM
      1 C1          -2.1230    -0.6990    -0.3870 c5         1 SZ8       0.146500
      2 N1          -3.2170    -1.6360    -0.0530 n8         1 SZ8      -0.994200
      3 O1           2.2570    -0.8160     0.4680 os         1 SZ8      -0.453100
      4 C2          -2.2260     0.7160     0.2580 c5         1 SZ8       0.171800
      5 N2          -0.8780     1.2350    -0.0620 n3         1 SZ8      -0.722600
      6 C3          -0.5860     2.6030     0.4150 c3         1 SZ8       0.165100
      7 C4           0.0460     0.1580     0.4350 c5         1 SZ8       0.126500
      8 C5           1.4810     0.0980    -0.2070 c          1 SZ8       0.587100
      9 C6           3.6180    -1.0030     0.0360 c3         1 SZ8       0.152900
     10 C7          -0.7300    -1.1720     0.1280 c5         1 SZ8      -0.076400
     11 H1          -2.1010    -0.6000    -1.4830 h1         1 SZ8       0.040700
     12 HN1         -4.0920    -1.2930    -0.4660 hn         1 SZ8       0.397000
     13 HN1A        -3.0580    -2.5250    -0.5420 hn         1 SZ8       0.397000
     14 H2          -3.0260     1.3190    -0.1940 h1         1 SZ8       0.047700
     15 H2A         -2.3990     0.6620     1.3430 h1         1 SZ8       0.047700
     16 H3          -0.6510     2.6580     1.5100 h1         1 SZ8       0.034367
     17 H3A          0.4240     2.9120     0.1150 h1         1 SZ8       0.034367
     18 H3B         -1.3010     3.3210    -0.0080 h1         1 SZ8       0.034367
     19 H4           0.1880     0.2500     1.5210 h1         1 SZ8       0.058700
     20 H6           3.6540    -1.3440    -1.0070 h1         1 SZ8       0.046700
     21 H6A          4.1870    -0.0680     0.1180 h1         1 SZ8       0.046700
     22 H6B          4.1150    -1.7580     0.6580 h1         1 SZ8       0.046700
     23 H7          -0.8110    -1.7800     1.0360 hc         1 SZ8       0.062200
     24 H7A         -0.2260    -1.7900    -0.6240 hc         1 SZ8       0.062200
     25 O2           1.8980     0.7820    -1.1360 o          1 SZ8      -0.461000
@<TRIPOS>BOND
     1     1     2 1   
     2     1     4 1   
     3     1    10 1   
     4     1    11 1   
     5     2    12 1   
     6     2    13 1   
     7     3     8 1   
     8     3     9 1   
     9     4     5 1   
    10     4    14 1   
    11     4    15 1   
    12     5     6 1   
    13     5     7 1   
    14     6    16 1   
    15     6    17 1   
    16     6    18 1   
    17     7     8 1   
    18     7    10 1   
    19     7    19 1   
    20     8    25 2   
    21     9    20 1   
    22     9    21 1   
    23     9    22 1   
    24    10    23 1   
    25    10    24 1   
@<TRIPOS>SUBSTRUCTURE
     1 SZ8         1 TEMP              0 ****  ****    0 ROOT
