@<TRIPOS>MOLECULE
SZ8
   25    25     1     0     0
SMALL
abcg2


@<TRIPOS>ATOM
      1 C1          -2.0120    -0.7240    -0.4240 c5         1 SZ8       0.146500
      2 N1          -3.1620    -1.5360    -0.0690 n8         1 SZ8      -0.994200
      3 O1           2.2220    -0.7400     0.4220 os         1 SZ8      -0.453100
      4 C2          -2.1480     0.7190     0.0350 c5         1 SZ8       0.171800
      5 N2          -0.7820     1.1950    -0.0110 n3         1 SZ8      -0.722600
      6 C3          -0.5680     2.4900     0.5820 c3         1 SZ8       0.165100
      7 C4           0.0600     0.1430     0.5140 c5         1 SZ8       0.126500
      8 C5           1.4000     0.1050    -0.1890 c          1 SZ8       0.587100
      9 C6           3.5190    -0.9280    -0.1430 c3         1 SZ8       0.152900
     10 C7          -0.7460    -1.1650     0.3140 c5         1 SZ8      -0.076400
     11 H1          -1.8070    -0.7180    -1.5040 h1         1 SZ8       0.040700
     12 HN1         -3.9590    -1.2440    -0.6220 hn         1 SZ8       0.397000
     13 HN1A        -2.9890    -2.4960    -0.3390 hn         1 SZ8       0.397000
     14 H2          -2.7900     1.3230    -0.6110 h1         1 SZ8       0.047700
     15 H2A         -2.5790     0.7390     1.0510 h1         1 SZ8       0.047700
     16 H3          -0.7840     2.5110     1.6610 h1         1 SZ8       0.034367
     17 H3A          0.4660     2.8100     0.4420 h1         1 SZ8       0.034367
     18 H3B         -1.2060     3.2310     0.0990 h1         1 SZ8       0.034367
     19 H4           0.2620     0.2730     1.5900 h1         1 SZ8       0.058700
     20 H6           3.4600    -1.2860    -1.1710 h1         1 SZ8       0.046700
     21 H6A          4.1020    -0.0080    -0.1160 h1         1 SZ8       0.046700
     22 H6B          4.0060    -1.6800     0.4710 h1         1 SZ8       0.046700
     23 H7          -1.0240    -1.5790     1.2840 hc         1 SZ8       0.062200
     24 H7A         -0.1970    -1.9380    -0.2260 hc         1 SZ8       0.062200
     25 O2           1.6980     0.7350    -1.1700 o          1 SZ8      -0.461000
@<TRIPOS>BOND
     1     1     2 1   
     2     1     4 1   
     3     1    10 1   
     4     1    11 1   
     5     2    12 1   
     6     2    13 1   
     7     3     8 1   
     8     3     9 1   
     9     4     5 1   
    10     4    14 1   
    11     4    15 1   
    12     5     6 1   
    13     5     7 1   
    14     6    16 1   
    15     6    17 1   
    16     6    18 1   
    17     7     8 1   
    18     7    10 1   
    19     7    19 1   
    20     8    25 2   
    21     9    20 1   
    22     9    21 1   
    23     9    22 1   
    24    10    23 1   
    25    10    24 1   
@<TRIPOS>SUBSTRUCTURE
     1 SZ8         1 TEMP              0 ****  ****    0 ROOT
