@<TRIPOS>MOLECULE
SZ9
   20    20     1     0     0
SMALL
abcg2


@<TRIPOS>ATOM
      1 N           -2.7910    -0.7650    -0.6080 n8         1 SZ9      -0.997200
      2 O            1.1520     0.9110    -0.1230 os         1 SZ9      -0.249000
      3 C2           1.6630    -0.3270     0.0770 cc         1 SZ9       0.133300
      4 C3           0.6540    -1.1840     0.3560 cd         1 SZ9      -0.183000
      5 C4          -0.5610    -0.4240     0.3300 cd         1 SZ9      -0.171300
      6 C5          -1.9470    -0.9370     0.5700 c3         1 SZ9       0.227100
      7 C6          -0.1940     0.8480     0.0300 cc         1 SZ9       0.172300
      8 C7          -0.9660     2.1010    -0.1390 c3         1 SZ9      -0.124400
      9 HN          -2.4250    -1.3300    -1.3640 hn         1 SZ9       0.393000
     10 HNA         -3.7130    -1.1340    -0.4100 hn         1 SZ9       0.393000
     11 H1           3.6720     0.1330     0.6700 hc         1 SZ9       0.051700
     12 H1A          3.3970    -1.5300     0.1600 hc         1 SZ9       0.051700
     13 H1B          3.4930    -0.2440    -1.0410 hc         1 SZ9       0.051700
     14 H3           0.7540    -2.2400     0.5570 ha         1 SZ9       0.135000
     15 H5          -2.4090    -0.3840     1.3920 h1         1 SZ9       0.032700
     16 H5A         -1.8750    -1.9790     0.9100 h1         1 SZ9       0.032700
     17 H7          -0.7620     2.5770    -1.1000 hc         1 SZ9       0.056700
     18 H7A         -2.0300     1.8770    -0.1020 hc         1 SZ9       0.056700
     19 H7B         -0.7430     2.8300     0.6420 hc         1 SZ9       0.056700
     20 C1           3.1310    -0.4940    -0.0420 c3         1 SZ9      -0.119400
@<TRIPOS>BOND
     1     1     6 1   
     2     1     9 1   
     3     1    10 1   
     4     2     3 1   
     5     2     7 1   
     6     3     4 2   
     7     3    20 1   
     8     4     5 1   
     9     4    14 1   
    10     5     6 1   
    11     5     7 2   
    12     6    15 1   
    13     6    16 1   
    14     7     8 1   
    15     8    17 1   
    16     8    18 1   
    17     8    19 1   
    18    11    20 1   
    19    12    20 1   
    20    13    20 1   
@<TRIPOS>SUBSTRUCTURE
     1 SZ9         1 TEMP              0 ****  ****    0 ROOT
