@<TRIPOS>MOLECULE
SZ9
   20    20     1     0     0
SMALL
No Charge or Current Charge


@<TRIPOS>ATOM
      1 N           -2.5950    -1.3150    -0.6510 n8         1 SZ9      -0.997200
      2 O            1.1870     1.0080    -0.1340 os         1 SZ9      -0.249000
      3 C2           1.6150    -0.2920    -0.0250 cc         1 SZ9       0.133300
      4 C3           0.5490    -1.1050     0.2400 cd         1 SZ9      -0.183000
      5 C4          -0.6060    -0.2910     0.2990 cd         1 SZ9      -0.171300
      6 C5          -2.0100    -0.7520     0.5750 c3         1 SZ9       0.227100
      7 C6          -0.1750     0.9910     0.0670 cc         1 SZ9       0.172300
      8 C7          -0.9310     2.2880     0.0120 c3         1 SZ9      -0.124400
      9 HN          -2.0310    -2.1230    -0.9340 hn         1 SZ9       0.393000
     10 HNA         -3.5100    -1.7220    -0.4220 hn         1 SZ9       0.393000
     11 H1           3.6710    -0.0730     0.5570 hc         1 SZ9       0.051700
     12 H1A          3.2620    -1.6740    -0.0880 hc         1 SZ9       0.051700
     13 H1B          3.4220    -0.2910    -1.1870 hc         1 SZ9       0.051700
     14 H3           0.5910    -2.1800     0.3790 ha         1 SZ9       0.135000
     15 H5          -2.6270     0.0890     0.9190 h1         1 SZ9       0.032700
     16 H5A         -1.9990    -1.5240     1.3570 h1         1 SZ9       0.032700
     17 H7          -0.2900     3.1050    -0.3400 hc         1 SZ9       0.056700
     18 H7A         -1.7850     2.2100    -0.6700 hc         1 SZ9       0.056700
     19 H7B         -1.3100     2.5560     1.0050 hc         1 SZ9       0.056700
     20 C1           3.0730    -0.6000    -0.1950 c3         1 SZ9      -0.119400
@<TRIPOS>BOND
     1     1     6 1   
     2     1     9 1   
     3     1    10 1   
     4     2     3 1   
     5     2     7 1   
     6     3     4 2   
     7     3    20 1   
     8     4     5 1   
     9     4    14 1   
    10     5     6 1   
    11     5     7 2   
    12     6    15 1   
    13     6    16 1   
    14     7     8 1   
    15     8    17 1   
    16     8    18 1   
    17     8    19 1   
    18    11    20 1   
    19    12    20 1   
    20    13    20 1   
@<TRIPOS>SUBSTRUCTURE
     1 SZ9         1 TEMP              0 ****  ****    0 ROOT
