@<TRIPOS>MOLECULE
SZA
   28    29     1     0     0
SMALL
bcc


@<TRIPOS>ATOM
      1 C4          15.0960    11.4530   -41.1730 c3         1 SZA      -0.032100
      2 C5          13.7890    11.9330   -41.8210 c3         1 SZA       0.095000
      3 C6          14.2510    13.2100   -43.8590 c          1 SZA       0.678700
      4 N1          15.3590    12.9880   -47.9950 nb         1 SZA      -0.653000
      5 C7          14.6160    13.0950   -45.3090 ca         1 SZA      -0.111600
      6 C8          14.0800    12.1370   -46.1610 ca         1 SZA      -0.213300
      7 C9          14.4810    12.1310   -47.4900 ca         1 SZA       0.393200
      8 C10         15.8650    13.9030   -47.1760 ca         1 SZA       0.393200
      9 C11         15.5210    14.0060   -45.8380 ca         1 SZA      -0.213300
     10 O           14.2600    14.2980   -43.3060 o          1 SZA      -0.582100
     11 N           13.9210    12.0560   -43.2530 ns         1 SZA      -0.555900
     12 C2          16.2520    12.3260   -41.5290 cc         1 SZA      -0.071400
     13 C1          17.1120    12.1860   -42.5790 cd         1 SZA      -0.157000
     14 S           16.5530    13.8030   -40.6970 ss         1 SZA      -0.066800
     15 C3          17.8320    14.2260   -41.7580 cc         1 SZA      -0.108100
     16 C           18.0180    13.2740   -42.7110 cd         1 SZA      -0.154000
     17 H1          14.9480    11.4030   -40.0920 hc         1 SZA       0.055200
     18 H2          15.3080    10.4350   -41.5070 hc         1 SZA       0.055200
     19 H3          13.4930    12.8980   -41.4130 h1         1 SZA       0.064700
     20 H4          12.9920    11.2230   -41.5990 h1         1 SZA       0.064700
     21 H5          13.3490    11.4130   -45.8270 ha         1 SZA       0.152500
     22 H6          14.0680    11.3970   -48.1730 h4         1 SZA       0.022100
     23 H7          16.5830    14.5930   -47.6050 h4         1 SZA       0.022100
     24 H8          15.9650    14.7740   -45.2190 ha         1 SZA       0.152500
     25 H9          14.0560    11.1970   -43.7620 hn         1 SZA       0.309500
     26 H10         17.0920    11.3330   -43.2430 ha         1 SZA       0.144000
     27 H11         18.3820    15.1440   -41.6150 h4         1 SZA       0.168000
     28 H12         18.7750    13.3400   -43.4800 ha         1 SZA       0.150000
@<TRIPOS>BOND
     1     1     2 1   
     2     1    12 1   
     3     1    17 1   
     4     1    18 1   
     5     2    11 1   
     6     2    19 1   
     7     2    20 1   
     8     3     5 1   
     9     3    10 2   
    10     3    11 1   
    11     4     7 ar  
    12     4     8 ar  
    13     5     6 ar  
    14     5     9 ar  
    15     6     7 ar  
    16     6    21 1   
    17     7    22 1   
    18     8     9 ar  
    19     8    23 1   
    20     9    24 1   
    21    11    25 1   
    22    12    13 2   
    23    12    14 1   
    24    13    16 1   
    25    13    26 1   
    26    14    15 1   
    27    15    16 2   
    28    15    27 1   
    29    16    28 1   
@<TRIPOS>SUBSTRUCTURE
     1 SZA         1 TEMP              0 ****  ****    0 ROOT
