@<TRIPOS>MOLECULE
SZA
   28    29     1     0     0
SMALL
No Charge or Current Charge


@<TRIPOS>ATOM
      1 C4          14.9970    11.4900   -41.1760 c3         1 SZA      -0.032100
      2 C5          13.7610    12.1080   -41.8650 c3         1 SZA       0.095000
      3 C6          14.2990    13.3690   -43.9860 c          1 SZA       0.611700
      4 N1          15.0840    13.0500   -48.2690 nb         1 SZA      -0.653000
      5 C7          14.5650    13.2330   -45.4730 ca         1 SZA      -0.111600
      6 C8          14.4690    12.0030   -46.1680 ca         1 SZA      -0.130000
      7 C9          14.7340    11.9600   -47.5480 ca         1 SZA       0.327900
      8 C10         15.1790    14.2290   -47.6140 ca         1 SZA       0.327900
      9 C11         14.9320    14.3640   -46.2380 ca         1 SZA      -0.130000
     10 O           14.3920    14.4440   -43.4090 o          1 SZA      -0.582100
     11 N           13.9380    12.2170   -43.3190 ns         1 SZA      -0.488900
     12 C2          16.2730    12.2580   -41.4130 cc         1 SZA      -0.216300
     13 C1          17.3240    11.9100   -42.2240 cd         1 SZA      -0.139000
     14 S           16.5760    13.8060   -40.6220 ss         1 SZA       0.223000
     15 C3          18.1390    13.9460   -41.4220 cc         1 SZA      -0.235000
     16 C           18.3770    12.8630   -42.2300 cd         1 SZA      -0.136000
     17 H1          14.8010    11.4260   -40.0980 hc         1 SZA       0.055200
     18 H2          15.1160    10.4570   -41.5260 hc         1 SZA       0.055200
     19 H3          13.5610    13.1000   -41.4380 h1         1 SZA       0.064700
     20 H4          12.8840    11.4790   -41.6650 h1         1 SZA       0.064700
     21 H5          14.1960    11.0780   -45.6680 ha         1 SZA       0.134500
     22 H6          14.6650    11.0210   -48.0950 h4         1 SZA       0.022100
     23 H7          15.4630    15.0940   -48.2130 h4         1 SZA       0.022100
     24 H8          15.0290    15.3430   -45.7770 ha         1 SZA       0.134500
     25 H9          13.8750    11.3720   -43.8700 hn         1 SZA       0.309500
     26 H10         17.3470    10.9960   -42.8100 ha         1 SZA       0.126000
     27 H11         18.7590    14.8130   -41.2360 h4         1 SZA       0.150000
     28 H12         19.2830    12.7470   -42.8180 ha         1 SZA       0.132000
@<TRIPOS>BOND
     1     1     2 1   
     2     1    12 1   
     3     1    17 1   
     4     1    18 1   
     5     2    11 1   
     6     2    19 1   
     7     2    20 1   
     8     3     5 1   
     9     3    10 2   
    10     3    11 1   
    11     4     7 ar  
    12     4     8 ar  
    13     5     6 ar  
    14     5     9 ar  
    15     6     7 ar  
    16     6    21 1   
    17     7    22 1   
    18     8     9 ar  
    19     8    23 1   
    20     9    24 1   
    21    11    25 1   
    22    12    13 2   
    23    12    14 1   
    24    13    16 1   
    25    13    26 1   
    26    14    15 1   
    27    15    16 2   
    28    15    27 1   
    29    16    28 1   
@<TRIPOS>SUBSTRUCTURE
     1 SZA         1 TEMP              0 ****  ****    0 ROOT
