@<TRIPOS>MOLECULE
SZB
   10    10     1     0     0
SMALL
bcc


@<TRIPOS>ATOM
      1 O1         -54.8420    15.5130   -29.1580 o          1 SZB      -0.551000
      2 C3         -55.6050    15.3610   -28.2390 c          1 SZB       0.699200
      3 C2         -57.0360    14.9380   -28.2940 cc         1 SZB      -0.186700
      4 C1         -57.5110    14.8980   -27.0550 cd         1 SZB      -0.186700
      5 N          -55.3200    15.5490   -26.9040 ns         1 SZB      -0.627500
      6 C          -56.4180    15.2930   -26.1150 c          1 SZB       0.699200
      7 O          -56.4690    15.3730   -24.9140 o          1 SZB      -0.551000
      8 H1         -57.5460    14.7150   -29.2190 ha         1 SZB       0.176000
      9 H2         -58.5030    14.6360   -26.7200 ha         1 SZB       0.176000
     10 H3         -54.4200    15.8400   -26.5500 hn         1 SZB       0.352500
@<TRIPOS>BOND
     1     1     2 2   
     2     2     3 1   
     3     2     5 1   
     4     3     4 2   
     5     3     8 1   
     6     4     6 1   
     7     4     9 1   
     8     5     6 1   
     9     5    10 1   
    10     6     7 2   
@<TRIPOS>SUBSTRUCTURE
     1 SZB         1 TEMP              0 ****  ****    0 ROOT
