@<TRIPOS>MOLECULE
SZB
   10    10     1     0     0
SMALL
No Charge or Current Charge


@<TRIPOS>ATOM
      1 O1         -54.8040    15.5210   -29.1670 o          1 SZB      -0.475500
      2 C3         -55.6030    15.3600   -28.2620 c          1 SZB       0.556700
      3 C2         -57.0060    14.9460   -28.3120 cc         1 SZB      -0.236700
      4 C1         -57.5010    14.9040   -27.0230 cd         1 SZB      -0.236700
      5 N          -55.3840    15.5290   -26.9300 ns         1 SZB      -0.493500
      6 C          -56.4320    15.2900   -26.0950 c          1 SZB       0.556700
      7 O          -56.4480    15.3810   -24.8800 o          1 SZB      -0.475500
      8 H1         -57.5120    14.7240   -29.2460 ha         1 SZB       0.226000
      9 H2         -58.4940    14.6410   -26.6760 ha         1 SZB       0.226000
     10 H3         -54.4850    15.8200   -26.5770 hn         1 SZB       0.352500
@<TRIPOS>BOND
     1     1     2 2   
     2     2     3 1   
     3     2     5 1   
     4     3     4 2   
     5     3     8 1   
     6     4     6 1   
     7     4     9 1   
     8     5     6 1   
     9     5    10 1   
    10     6     7 2   
@<TRIPOS>SUBSTRUCTURE
     1 SZB         1 TEMP              0 ****  ****    0 ROOT
