@<TRIPOS>MOLECULE
SZC
   46    49     1     0     0
SMALL
abcg2


@<TRIPOS>ATOM
      1 C1           3.1740    -2.6410     1.4090 ca         1 SZC      -0.165000
      2 C2          -3.2460    -1.3130     0.8940 ca         1 SZC      -0.090500
      3 C3          -2.6380     0.2400    -0.8360 ca         1 SZC      -0.090500
      4 C4          -4.5760    -0.9690     0.7390 ca         1 SZC      -0.063000
      5 C5          -3.9690     0.5850    -0.9940 ca         1 SZC      -0.063000
      6 C6           1.8500    -2.7200     1.7990 ca         1 SZC       0.012000
      7 C7           3.5710    -1.8430     0.3300 ca         1 SZC       0.025000
      8 C8          -2.2620    -0.7140     0.1090 ca         1 SZC      -0.084900
      9 C9          -4.9420    -0.0200    -0.2080 ca         1 SZC      -0.184300
     10 C10          0.9050    -1.9950     1.0760 ca         1 SZC       0.046400
     11 C11          1.3030    -1.1990    -0.0130 ca         1 SZC      -0.004200
     12 C12          2.6420    -1.1090    -0.3880 ca         1 SZC      -0.319500
     13 C13         -0.8670    -1.0990     0.3060 cc         1 SZC       0.465400
     14 C14          5.0130     3.4130     1.6460 c5         1 SZC      -0.078400
     15 C15          4.1900     2.4220     2.5070 c5         1 SZC      -0.078400
     16 C16          4.5570     3.1960     0.1990 c5         1 SZC      -0.094400
     17 C17          3.2670     1.6850     1.5320 c5         1 SZC      -0.094400
     18 C18          4.0100     1.7700     0.1990 c5         1 SZC       0.212500
     19 C19         -6.3720     0.4000    -0.3540 c3         1 SZC       0.357300
     20 N20         -0.4500    -1.9050     1.2440 nd         1 SZC      -0.560100
     21 N21          0.1520    -0.6410    -0.4790 na         1 SZC      -0.304600
     22 N22          3.1970     1.5030    -0.9830 n7         1 SZC      -0.878300
     23 O23          4.5040    -0.3460    -2.0350 o          1 SZC      -0.541500
     24 O24          2.0930     0.0570    -2.6540 o          1 SZC      -0.541500
     25 F25         -6.6270     1.5170     0.3440 f          1 SZC      -0.111333
     26 F26         -6.6910     0.6620    -1.6260 f          1 SZC      -0.111333
     27 F27         -7.2240    -0.5320     0.0830 f          1 SZC      -0.111333
     28 S28          3.1500     0.0100    -1.6530 sy         1 SZC       1.174600
     29 H1           3.9260    -3.2020     1.9460 ha         1 SZC       0.124000
     30 H2          -2.9700    -2.0550     1.6300 ha         1 SZC       0.132500
     31 H3          -1.9080     0.7370    -1.4600 ha         1 SZC       0.132500
     32 H4          -5.3160    -1.4530     1.3620 ha         1 SZC       0.135500
     33 H5          -4.2280     1.3280    -1.7360 ha         1 SZC       0.135500
     34 H6           1.5500    -3.3310     2.6400 ha         1 SZC       0.135000
     35 H7           4.6170    -1.8020     0.0610 ha         1 SZC       0.140000
     36 H14A         6.0800     3.2040     1.7440 hc         1 SZC       0.047450
     37 H15          4.8530     1.7140     3.0070 hc         1 SZC       0.047450
     38 H15A         3.6240     2.9260     3.2910 hc         1 SZC       0.047450
     39 H16          3.7470     3.8850    -0.0580 hc         1 SZC       0.053200
     40 H16A         5.3520     3.3370    -0.5330 hc         1 SZC       0.053200
     41 H17          3.0450     0.6630     1.8410 hc         1 SZC       0.053200
     42 H17A         2.3120     2.2110     1.4340 hc         1 SZC       0.053200
     43 H18          4.8510     1.0690     0.1980 h1         1 SZC       0.075700
     44 HN21         0.0680    -0.0700    -1.3050 hn         1 SZC       0.381000
     45 HN22         2.2930     1.9650    -0.9850 hn         1 SZC       0.482000
     46 H14          4.8680     4.4470     1.9570 hc         1 SZC       0.047450
@<TRIPOS>BOND
     1     1     6 ar  
     2     1     7 ar  
     3     1    29 1   
     4     2     4 ar  
     5     2     8 ar  
     6     2    30 1   
     7     3     5 ar  
     8     3     8 ar  
     9     3    31 1   
    10     4     9 ar  
    11     4    32 1   
    12     5     9 ar  
    13     5    33 1   
    14     6    10 ar  
    15     6    34 1   
    16     7    12 ar  
    17     7    35 1   
    18     8    13 1   
    19     9    19 1   
    20    10    11 ar  
    21    10    20 1   
    22    11    12 ar  
    23    11    21 1   
    24    12    28 1   
    25    13    20 2   
    26    13    21 1   
    27    14    15 1   
    28    14    16 1   
    29    14    36 1   
    30    14    46 1   
    31    15    17 1   
    32    15    37 1   
    33    15    38 1   
    34    16    18 1   
    35    16    39 1   
    36    16    40 1   
    37    17    18 1   
    38    17    41 1   
    39    17    42 1   
    40    18    22 1   
    41    18    43 1   
    42    19    25 1   
    43    19    26 1   
    44    19    27 1   
    45    21    44 1   
    46    22    28 1   
    47    22    45 1   
    48    23    28 2   
    49    24    28 2   
@<TRIPOS>SUBSTRUCTURE
     1 SZC         1 TEMP              0 ****  ****    0 ROOT
