@<TRIPOS>MOLECULE
SZC
   46    49     1     0     0
SMALL
No Charge or Current Charge


@<TRIPOS>ATOM
      1 C1           3.5810    -2.9460     0.9880 ca         1 SZC      -0.165000
      2 C2          -2.9260    -1.3210     1.1600 ca         1 SZC      -0.090500
      3 C3          -2.3570     0.2980    -0.5550 ca         1 SZC      -0.090500
      4 C4          -4.2640    -0.8940     1.1210 ca         1 SZC      -0.063000
      5 C5          -3.6960     0.7250    -0.5950 ca         1 SZC      -0.063000
      6 C6           2.2550    -3.0440     1.4620 ca         1 SZC       0.012000
      7 C7           3.9150    -2.0260    -0.0350 ca         1 SZC       0.025000
      8 C8          -1.9530    -0.7350     0.3200 ca         1 SZC      -0.084900
      9 C9          -4.6660     0.1290     0.2370 ca         1 SZC      -0.184300
     10 C10          1.2810    -2.2110     0.8910 ca         1 SZC       0.046400
     11 C11          1.6120    -1.3300    -0.0980 ca         1 SZC      -0.004200
     12 C12          2.9200    -1.1930    -0.5960 ca         1 SZC      -0.319500
     13 C13         -0.5520    -1.1890     0.3740 cc         1 SZC       0.465400
     14 C14          3.9890     3.1200     2.1550 c5         1 SZC      -0.078400
     15 C15          2.4780     3.0440     1.7500 c5         1 SZC      -0.078400
     16 C16          4.7550     2.5590     0.9230 c5         1 SZC      -0.094400
     17 C17          2.4780     2.4160     0.3260 c5         1 SZC      -0.094400
     18 C18          3.7440     1.5260     0.3810 c5         1 SZC       0.212500
     19 C19         -6.1240     0.6040     0.2010 c3         1 SZC       0.357300
     20 N20         -0.0740    -2.1390     1.2050 nd         1 SZC      -0.560100
     21 N21          0.4640    -0.6870    -0.4350 na         1 SZC      -0.304600
     22 N22          4.1710     1.1570    -0.9860 n7         1 SZC      -0.878300
     23 O23          4.3840    -0.5990    -2.7390 o          1 SZC      -0.541500
     24 O24          2.1650     0.6540    -2.3980 o          1 SZC      -0.541500
     25 F25         -6.3320     1.6150     1.0740 f          1 SZC      -0.111333
     26 F26         -6.4880     1.0550    -1.0210 f          1 SZC      -0.111333
     27 F27         -6.9940    -0.3810     0.5230 f          1 SZC      -0.111333
     28 S28          3.3640    -0.0030    -1.8740 sy         1 SZC       1.174600
     29 H1           4.3540    -3.5790     1.4160 ha         1 SZC       0.124000
     30 H2          -2.6490    -2.1130     1.8510 ha         1 SZC       0.132500
     31 H3          -1.6410     0.7840    -1.2130 ha         1 SZC       0.132500
     32 H4          -4.9870    -1.3630     1.7860 ha         1 SZC       0.135500
     33 H5          -3.9730     1.5280    -1.2760 ha         1 SZC       0.135500
     34 H6           1.9920    -3.7460     2.2500 ha         1 SZC       0.135000
     35 H7           4.9470    -1.9580    -0.3790 ha         1 SZC       0.140000
     36 H14A         4.1800     2.5120     3.0470 hc         1 SZC       0.047450
     37 H15          1.9210     2.4170     2.4560 hc         1 SZC       0.047450
     38 H15A         1.9990     4.0300     1.7560 hc         1 SZC       0.047450
     39 H16          4.9710     3.3520     0.1960 hc         1 SZC       0.053200
     40 H16A         5.7110     2.1020     1.2010 hc         1 SZC       0.053200
     41 H17          1.5640     1.8470     0.1340 hc         1 SZC       0.053200
     42 H17A         2.5490     3.1910    -0.4470 hc         1 SZC       0.053200
     43 H18          3.6400     0.6660     1.0590 h1         1 SZC       0.075700
     44 HN21         0.3590     0.0130    -1.1560 hn         1 SZC       0.381000
     45 HN22         4.1080     1.9580    -1.6080 hn         1 SZC       0.482000
     46 H14          4.3020     4.1430     2.3960 hc         1 SZC       0.047450
@<TRIPOS>BOND
     1     1     6 ar  
     2     1     7 ar  
     3     1    29 1   
     4     2     4 ar  
     5     2     8 ar  
     6     2    30 1   
     7     3     5 ar  
     8     3     8 ar  
     9     3    31 1   
    10     4     9 ar  
    11     4    32 1   
    12     5     9 ar  
    13     5    33 1   
    14     6    10 ar  
    15     6    34 1   
    16     7    12 ar  
    17     7    35 1   
    18     8    13 1   
    19     9    19 1   
    20    10    11 ar  
    21    10    20 1   
    22    11    12 ar  
    23    11    21 1   
    24    12    28 1   
    25    13    20 2   
    26    13    21 1   
    27    14    15 1   
    28    14    16 1   
    29    14    36 1   
    30    14    46 1   
    31    15    17 1   
    32    15    37 1   
    33    15    38 1   
    34    16    18 1   
    35    16    39 1   
    36    16    40 1   
    37    17    18 1   
    38    17    41 1   
    39    17    42 1   
    40    18    22 1   
    41    18    43 1   
    42    19    25 1   
    43    19    26 1   
    44    19    27 1   
    45    21    44 1   
    46    22    28 1   
    47    22    45 1   
    48    23    28 2   
    49    24    28 2   
@<TRIPOS>SUBSTRUCTURE
     1 SZC         1 TEMP              0 ****  ****    0 ROOT
