@<TRIPOS>MOLECULE
SZD
   45    47     1     0     0
SMALL
abcg2


@<TRIPOS>ATOM
      1 N1          23.0840   -37.2160     5.7740 ns         1 SZD      -0.148000
      2 C4          24.9210   -36.1510     3.8210 ca         1 SZD      -0.135000
      3 C5          24.7370   -37.5120     4.0460 ca         1 SZD      -0.103600
      4 C6          25.2340   -38.4520     3.1480 ca         1 SZD      -0.135000
      5 C7          24.0600   -38.0220     5.2800 c          1 SZD       0.619700
      6 C8          22.3130   -37.4460     6.9170 ca         1 SZD      -0.043000
      7 C10         20.2260   -37.0680     8.0750 ca         1 SZD      -0.103000
      8 C13         22.7920   -38.1500     8.0190 ca         1 SZD      -0.024000
      9 C15         21.9360   -41.6950     7.8120 ca         1 SZD      -0.100000
     10 C17         23.7970   -42.7760     6.7810 ca         1 SZD       0.100100
     11 C20         24.9150   -42.8340     4.7240 c3         1 SZD       0.516000
     12 C1          25.8890   -38.0010     2.0210 ca         1 SZD       0.196000
     13 C2          26.0880   -36.6590     1.7570 ca         1 SZD      -0.179000
     14 C3          25.5950   -35.7590     2.6810 ca         1 SZD       0.196000
     15 F1          26.3570   -38.8940     1.1430 f          1 SZD      -0.164500
     16 F2          25.7880   -34.4550     2.4660 f          1 SZD      -0.164500
     17 O1          24.3790   -39.0840     5.7770 o          1 SZD      -0.559100
     18 C9          21.0290   -36.9030     6.9590 ca         1 SZD      -0.108000
     19 C11         20.6790   -37.7880     9.1690 ca         1 SZD      -0.044000
     20 C12         21.9610   -38.3120     9.1190 ca         1 SZD      -0.287500
     21 S1          22.5420   -39.2950    10.4750 sy         1 SZD       1.144600
     22 N2          22.1200   -40.8610    10.0920 nu         1 SZD      -0.866100
     23 O2          21.7730   -38.9670    11.6590 o          1 SZD      -0.523500
     24 O3          23.9910   -39.2360    10.4940 o          1 SZD      -0.523500
     25 C14         22.6970   -41.4820     8.9570 ca         1 SZD       0.247000
     26 C16         22.4800   -42.3550     6.7220 ca         1 SZD      -0.083500
     27 C18         24.5720   -42.5600     7.9070 ca         1 SZD      -0.083500
     28 C19         24.0150   -41.9220     9.0040 ca         1 SZD      -0.100000
     29 F3          25.3810   -43.7220     3.8610 f          1 SZD      -0.108000
     30 F4          24.0660   -42.0300     4.0790 f          1 SZD      -0.108000
     31 F5          25.9290   -42.0730     5.1360 f          1 SZD      -0.108000
     32 H1          22.7620   -36.4620     5.1850 hn         1 SZD       0.159000
     33 H2          24.5830   -35.3990     4.5230 ha         1 SZD       0.150000
     34 H3          25.1040   -39.5110     3.3170 ha         1 SZD       0.150000
     35 H4          19.2350   -36.6350     8.0870 ha         1 SZD       0.122000
     36 H5          23.7950   -38.5470     8.0310 ha         1 SZD       0.164000
     37 H6          20.9100   -41.3520     7.7740 ha         1 SZD       0.134500
     38 H7          26.6100   -36.3270     0.8700 ha         1 SZD       0.155000
     39 H8          20.6550   -36.3450     6.1090 ha         1 SZD       0.116000
     40 H9          20.0450   -37.9240    10.0340 ha         1 SZD       0.139000
     41 H10         21.1150   -40.9950    10.1740 hn         1 SZD       0.487000
     42 H11         21.8750   -42.5450     5.8450 ha         1 SZD       0.138000
     43 H12         25.5920   -42.9190     7.9490 ha         1 SZD       0.138000
     44 H13         24.6040   -41.7900     9.9000 ha         1 SZD       0.134500
     45 O4          24.3300   -43.5040     5.7240 os         1 SZD      -0.405100
@<TRIPOS>BOND
     1     1     5 1   
     2     1     6 1   
     3     1    32 1   
     4     2     3 ar  
     5     2    14 ar  
     6     2    33 1   
     7     3     4 ar  
     8     3     5 1   
     9     4    12 ar  
    10     4    34 1   
    11     5    17 2   
    12     6     8 ar  
    13     6    18 ar  
    14     7    18 ar  
    15     7    19 ar  
    16     7    35 1   
    17     8    20 ar  
    18     8    36 1   
    19     9    25 ar  
    20     9    26 ar  
    21     9    37 1   
    22    10    26 ar  
    23    10    27 ar  
    24    10    45 1   
    25    11    29 1   
    26    11    30 1   
    27    11    31 1   
    28    11    45 1   
    29    12    13 ar  
    30    12    15 1   
    31    13    14 ar  
    32    13    38 1   
    33    14    16 1   
    34    18    39 1   
    35    19    20 ar  
    36    19    40 1   
    37    20    21 1   
    38    21    22 1   
    39    21    23 2   
    40    21    24 2   
    41    22    25 1   
    42    22    41 1   
    43    25    28 ar  
    44    26    42 1   
    45    27    28 ar  
    46    27    43 1   
    47    28    44 1   
@<TRIPOS>SUBSTRUCTURE
     1 SZD         1 TEMP              0 ****  ****    0 ROOT
