@<TRIPOS>MOLECULE
SZD
   45    47     1     0     0
SMALL
No Charge or Current Charge


@<TRIPOS>ATOM
      1 N1          23.3330   -37.2500     5.8900 ns         1 SZD      -0.148000
      2 C4          24.5330   -36.3080     3.4300 ca         1 SZD      -0.135000
      3 C5          25.1010   -37.3790     4.1700 ca         1 SZD      -0.103600
      4 C6          26.2690   -37.9960     3.6560 ca         1 SZD      -0.135000
      5 C7          24.5030   -37.8790     5.4760 c          1 SZD       0.619700
      6 C8          22.5070   -37.4360     7.0340 ca         1 SZD      -0.043000
      7 C10         20.3440   -37.0420     8.0990 ca         1 SZD      -0.103000
      8 C13         22.9180   -38.1620     8.1740 ca         1 SZD      -0.024000
      9 C15         21.5790   -42.2820     8.2980 ca         1 SZD      -0.100000
     10 C17         23.1270   -42.7060     6.4560 ca         1 SZD       0.100100
     11 C20         24.5430   -43.1600     4.4520 c3         1 SZD       0.516000
     12 C1          26.8430   -37.5600     2.4520 ca         1 SZD       0.196000
     13 C2          26.2730   -36.5040     1.7330 ca         1 SZD      -0.179000
     14 C3          25.1190   -35.8820     2.2260 ca         1 SZD       0.196000
     15 F1          27.9560   -38.1650     1.9820 f          1 SZD      -0.164500
     16 F2          24.5650   -34.8620     1.5370 f          1 SZD      -0.164500
     17 O1          25.0280   -38.7920     6.1030 o          1 SZD      -0.559100
     18 C9          21.2200   -36.8670     7.0150 ca         1 SZD      -0.108000
     19 C11         20.7440   -37.7910     9.2180 ca         1 SZD      -0.044000
     20 C12         22.0370   -38.3510     9.2600 ca         1 SZD      -0.287500
     21 S1          22.5530   -39.3530    10.6650 sy         1 SZD       1.144600
     22 N2          22.2340   -40.9350    10.1910 nu         1 SZD      -0.866100
     23 O2          21.6350   -39.1580    11.7890 o          1 SZD      -0.523500
     24 O3          24.0090   -39.3050    10.8230 o          1 SZD      -0.523500
     25 C14         22.5580   -41.5350     8.9750 ca         1 SZD       0.247000
     26 C16         21.8620   -42.8610     7.0470 ca         1 SZD      -0.083500
     27 C18         24.1220   -41.9780     7.1460 ca         1 SZD      -0.083500
     28 C19         23.8360   -41.4050     8.3990 ca         1 SZD      -0.100000
     29 F3          24.4300   -43.8000     3.2670 f          1 SZD      -0.108000
     30 F4          24.8400   -41.8690     4.1740 f          1 SZD      -0.108000
     31 F5          25.6030   -43.7040     5.0920 f          1 SZD      -0.108000
     32 H1          22.9970   -36.5380     5.2570 hn         1 SZD       0.159000
     33 H2          23.6400   -35.7910     3.7690 ha         1 SZD       0.150000
     34 H3          26.7370   -38.8210     4.1890 ha         1 SZD       0.150000
     35 H4          19.3480   -36.6050     8.0680 ha         1 SZD       0.122000
     36 H5          23.9170   -38.5860     8.2290 ha         1 SZD       0.164000
     37 H6          20.5890   -42.4020     8.7300 ha         1 SZD       0.134500
     38 H7          26.7200   -36.1700     0.8020 ha         1 SZD       0.155000
     39 H8          20.8890   -36.2960     6.1500 ha         1 SZD       0.116000
     40 H9          20.0470   -37.9320    10.0430 ha         1 SZD       0.139000
     41 H10         21.3000   -41.1080    10.5370 hn         1 SZD       0.487000
     42 H11         21.0920   -43.4260     6.5270 ha         1 SZD       0.138000
     43 H12         25.1160   -41.8380     6.7340 ha         1 SZD       0.138000
     44 H13         24.6190   -40.8600     8.9150 ha         1 SZD       0.134500
     45 O4          23.3250   -43.2850     5.2150 os         1 SZD      -0.405100
@<TRIPOS>BOND
     1     1     5 1   
     2     1     6 1   
     3     1    32 1   
     4     2     3 ar  
     5     2    14 ar  
     6     2    33 1   
     7     3     4 ar  
     8     3     5 1   
     9     4    12 ar  
    10     4    34 1   
    11     5    17 2   
    12     6     8 ar  
    13     6    18 ar  
    14     7    18 ar  
    15     7    19 ar  
    16     7    35 1   
    17     8    20 ar  
    18     8    36 1   
    19     9    25 ar  
    20     9    26 ar  
    21     9    37 1   
    22    10    26 ar  
    23    10    27 ar  
    24    10    45 1   
    25    11    29 1   
    26    11    30 1   
    27    11    31 1   
    28    11    45 1   
    29    12    13 ar  
    30    12    15 1   
    31    13    14 ar  
    32    13    38 1   
    33    14    16 1   
    34    18    39 1   
    35    19    20 ar  
    36    19    40 1   
    37    20    21 1   
    38    21    22 1   
    39    21    23 2   
    40    21    24 2   
    41    22    25 1   
    42    22    41 1   
    43    25    28 ar  
    44    26    42 1   
    45    27    28 ar  
    46    27    43 1   
    47    28    44 1   
@<TRIPOS>SUBSTRUCTURE
     1 SZD         1 TEMP              0 ****  ****    0 ROOT
