@<TRIPOS>MOLECULE
SZE
   27    28     1     0     0
SMALL
No Charge or Current Charge


@<TRIPOS>ATOM
      1 N1         -38.4590     2.9280     0.0500 nh         1 SZE      -0.747300
      2 C4         -37.7400     3.3030    -2.4430 c          1 SZE       0.562000
      3 C5         -39.1730     2.2450     1.0650 ca         1 SZE       0.559900
      4 C6         -41.1360     1.1260     1.5830 ca         1 SZE       0.361900
      5 C7         -40.7090     0.8790     2.8990 ca         1 SZE      -0.172000
      6 C8         -39.4430     1.3320     3.3090 ca         1 SZE      -0.093000
      7 C9         -38.6580     2.0260     2.3760 ca         1 SZE       0.088000
      8 N2         -40.3860     1.7930     0.6760 nb         1 SZE      -0.718000
      9 C2         -37.8910     4.2800     0.2970 c6         1 SZE       0.185800
     10 C1         -36.5890     4.4960    -0.5190 c6         1 SZE       0.106000
     11 C3         -38.7260     2.6740    -1.4110 c6         1 SZE       0.117800
     12 O          -37.8450     3.0570    -3.6410 o          1 SZE      -0.565000
     13 N          -36.7180     4.1570    -1.9630 n          1 SZE      -0.405800
     14 C          -35.7450     4.7510    -2.9040 c3         1 SZE       0.084300
     15 H1         -42.1110     0.7780     1.2440 h4         1 SZE       0.025100
     16 H2         -41.3530     0.3350     3.5850 ha         1 SZE       0.131000
     17 H3         -39.0780     1.1470     4.3170 ha         1 SZE       0.136000
     18 H4         -37.6740     4.4440     1.3610 h1         1 SZE       0.056700
     19 H5         -38.6240     5.0460     0.0020 h1         1 SZE       0.056700
     20 H6         -35.7950     3.8710    -0.0860 h1         1 SZE       0.051200
     21 H7         -36.2740     5.5440    -0.4130 h1         1 SZE       0.051200
     22 H8         -39.7210     3.0530    -1.6840 h1         1 SZE       0.082700
     23 H9         -38.7140     1.5930    -1.6120 h1         1 SZE       0.082700
     24 H10        -34.9750     5.3120    -2.3580 h1         1 SZE       0.044033
     25 H11        -35.2570     3.9580    -3.4850 h1         1 SZE       0.044033
     26 H12        -36.2630     5.4340    -3.5890 h1         1 SZE       0.044033
     27 F          -37.4180     2.4410     2.7390 f          1 SZE      -0.172000
@<TRIPOS>BOND
     1     1     3 1   
     2     1     9 1   
     3     1    11 1   
     4     2    11 1   
     5     2    12 2   
     6     2    13 1   
     7     3     7 ar  
     8     3     8 ar  
     9     4     5 ar  
    10     4     8 ar  
    11     4    15 1   
    12     5     6 ar  
    13     5    16 1   
    14     6     7 ar  
    15     6    17 1   
    16     7    27 1   
    17     9    10 1   
    18     9    18 1   
    19     9    19 1   
    20    10    13 1   
    21    10    20 1   
    22    10    21 1   
    23    11    22 1   
    24    11    23 1   
    25    13    14 1   
    26    14    24 1   
    27    14    25 1   
    28    14    26 1   
@<TRIPOS>SUBSTRUCTURE
     1 SZE         1 TEMP              0 ****  ****    0 ROOT
