@<TRIPOS>MOLECULE
SZE
   27    28     1     0     0
SMALL
bcc


@<TRIPOS>ATOM
      1 N1         -38.3590     2.9240     0.0390 nh         1 SZE      -0.747300
      2 C4         -37.8010     3.3610    -2.3380 c          1 SZE       0.704500
      3 C5         -39.1250     2.2660     0.9830 ca         1 SZE       0.625200
      4 C6         -41.0350     1.0890     1.4930 ca         1 SZE       0.427200
      5 C7         -40.6590     0.8830     2.8040 ca         1 SZE      -0.255300
      6 C8         -39.4230     1.3810     3.2090 ca         1 SZE      -0.111000
      7 C9         -38.6580     2.0500     2.2900 ca         1 SZE      -0.012400
      8 N2         -40.2960     1.7660     0.6190 nb         1 SZE      -0.718000
      9 C2         -37.8330     4.2490     0.3210 c6         1 SZE       0.185800
     10 C1         -36.5860     4.4560    -0.5020 c6         1 SZE       0.106000
     11 C3         -38.8040     2.8270    -1.3320 c6         1 SZE       0.117800
     12 O          -37.9460     3.0610    -3.5170 o          1 SZE      -0.640500
     13 N          -36.8230     4.1750    -1.9070 n          1 SZE      -0.472800
     14 C          -35.8100     4.6350    -2.8340 c3         1 SZE       0.084300
     15 H1         -41.9750     0.6970     1.1220 h4         1 SZE       0.025100
     16 H2         -41.2940     0.3400     3.4890 ha         1 SZE       0.149000
     17 H3         -39.0510     1.2230     4.2130 ha         1 SZE       0.154000
     18 H4         -37.5810     4.3680     1.3700 h1         1 SZE       0.056700
     19 H5         -38.5810     5.0160     0.0810 h1         1 SZE       0.056700
     20 H6         -35.7760     3.8260    -0.1220 h1         1 SZE       0.051200
     21 H7         -36.2650     5.4940    -0.4070 h1         1 SZE       0.051200
     22 H8         -39.7490     3.3610    -1.5080 h1         1 SZE       0.082700
     23 H9         -38.9850     1.7840    -1.5900 h1         1 SZE       0.082700
     24 H10        -35.4280     5.5960    -2.4950 h1         1 SZE       0.044033
     25 H11        -34.9730     3.9350    -2.8960 h1         1 SZE       0.044033
     26 H12        -36.2290     4.7630    -3.8280 h1         1 SZE       0.044033
     27 F          -37.4320     2.4750     2.6370 f          1 SZE      -0.136900
@<TRIPOS>BOND
     1     1     3 1   
     2     1     9 1   
     3     1    11 1   
     4     2    11 1   
     5     2    12 2   
     6     2    13 1   
     7     3     7 ar  
     8     3     8 ar  
     9     4     5 ar  
    10     4     8 ar  
    11     4    15 1   
    12     5     6 ar  
    13     5    16 1   
    14     6     7 ar  
    15     6    17 1   
    16     7    27 1   
    17     9    10 1   
    18     9    18 1   
    19     9    19 1   
    20    10    13 1   
    21    10    20 1   
    22    10    21 1   
    23    11    22 1   
    24    11    23 1   
    25    13    14 1   
    26    14    24 1   
    27    14    25 1   
    28    14    26 1   
@<TRIPOS>SUBSTRUCTURE
     1 SZE         1 TEMP              0 ****  ****    0 ROOT
