@<TRIPOS>MOLECULE
SZF
   33    34     1     0     0
SMALL
No Charge or Current Charge


@<TRIPOS>ATOM
      1 CA         125.9040   118.4170   113.5980 c3         1 SZF       0.026500
      2 C25        124.3760   118.5700   111.5730 c3         1 SZF       0.156100
      3 C27        124.9820   119.1280   114.6350 c3         1 SZF       0.006800
      4 C28        125.1620   120.6270   114.6990 cc         1 SZF      -0.069400
      5 C29        126.2810   121.3130   115.1700 cd         1 SZF      -0.167100
      6 C32        126.7220   124.1230   116.8300 c3         1 SZF       0.107900
      7 C33        124.7720   122.8660   114.5420 ca         1 SZF      -0.042200
      8 C34        124.0900   124.0600   114.2650 ca         1 SZF      -0.131000
      9 C35        122.7870   123.9710   113.7320 ca         1 SZF      -0.107000
     10 C36        122.2010   122.7060   113.4910 ca         1 SZF      -0.163000
     11 C37        122.9120   121.5210   113.7800 ca         1 SZF      -0.044000
     12 C38        124.2070   121.6410   114.3070 ca         1 SZF      -0.089800
     13 C          125.8710   116.8400   113.7430 c          1 SZF       0.695000
     14 N          125.6700   118.9190   112.1910 n7         1 SZF      -0.851400
     15 N30        126.0360   122.6930   115.0660 na         1 SZF       0.059300
     16 O31        126.9250   123.7380   115.4630 os         1 SZF      -0.274000
     17 O          124.9020   116.2980   114.2600 o          1 SZF      -0.732000
     18 HA         126.9280   118.6980   113.8780 h1         1 SZF       0.032700
     19 H253       124.3200   118.9730   110.5540 h1         1 SZF       0.012367
     20 H252       124.2500   117.4810   111.5150 h1         1 SZF       0.012367
     21 H251       123.5370   118.9850   112.1450 h1         1 SZF       0.012367
     22 H271       123.9340   118.8780   114.4350 hc         1 SZF       0.052700
     23 H272       125.2000   118.7160   115.6280 hc         1 SZF       0.052700
     24 H291       127.2160   120.9280   115.5620 h4         1 SZF       0.221000
     25 H323       127.4170   124.9250   117.1070 h1         1 SZF       0.042033
     26 H321       125.6980   124.4880   116.9830 h1         1 SZF       0.042033
     27 H322       126.8930   123.2730   117.5030 h1         1 SZF       0.042033
     28 H341       124.5510   125.0260   114.4560 ha         1 SZF       0.107000
     29 H351       122.2310   124.8780   113.5060 ha         1 SZF       0.093000
     30 H361       121.1960   122.6450   113.0810 ha         1 SZF       0.098000
     31 H371       122.4640   120.5470   113.5990 ha         1 SZF       0.120000
     32 H          126.4080   118.5200   111.5950 hn         1 SZF       0.412000
     33 OXT        126.8400   116.2100   113.3350 o          1 SZF      -0.732000
@<TRIPOS>BOND
     1     1     3 1   
     2     1    13 1   
     3     1    14 1   
     4     1    18 1   
     5     2    14 1   
     6     2    19 1   
     7     2    20 1   
     8     2    21 1   
     9     3     4 1   
    10     3    22 1   
    11     3    23 1   
    12     4     5 2   
    13     4    12 1   
    14     5    15 1   
    15     5    24 1   
    16     6    16 1   
    17     6    25 1   
    18     6    26 1   
    19     6    27 1   
    20     7     8 ar  
    21     7    12 ar  
    22     7    15 1   
    23     8     9 ar  
    24     8    28 1   
    25     9    10 ar  
    26     9    29 1   
    27    10    11 ar  
    28    10    30 1   
    29    11    12 ar  
    30    11    31 1   
    31    13    17 1   
    32    13    33 1   
    33    14    32 1   
    34    15    16 1   
@<TRIPOS>SUBSTRUCTURE
     1 SZF         1 TEMP              0 ****  ****    0 ROOT
