@<TRIPOS>MOLECULE
SZF
   33    34     1     0     0
SMALL
abcg2


@<TRIPOS>ATOM
      1 CA         125.9200   118.4100   113.7110 c3         1 SZF       0.026500
      2 C25        124.6350   118.7970   111.6720 c3         1 SZF       0.156100
      3 C27        124.9090   119.0990   114.6320 c3         1 SZF       0.006800
      4 C28        125.0710   120.5860   114.6960 cc         1 SZF      -0.069400
      5 C29        126.1730   121.2740   115.1190 cd         1 SZF      -0.167100
      6 C32        126.7600   123.9800   116.6740 c3         1 SZF       0.107900
      7 C33        124.6860   122.8500   114.5260 ca         1 SZF      -0.042200
      8 C34        124.0170   124.0410   114.2490 ca         1 SZF      -0.131000
      9 C35        122.7330   123.9400   113.7510 ca         1 SZF      -0.107000
     10 C36        122.1290   122.6890   113.5360 ca         1 SZF      -0.163000
     11 C37        122.8020   121.5150   113.8120 ca         1 SZF      -0.044000
     12 C38        124.1080   121.5780   114.3140 ca         1 SZF      -0.089800
     13 C          125.8290   116.8550   113.7470 c          1 SZF       0.695000
     14 N          125.8950   118.9710   112.3670 n7         1 SZF      -0.851400
     15 N30        125.9330   122.6200   115.0150 na         1 SZF       0.059300
     16 O31        126.8320   123.5870   115.3020 os         1 SZF      -0.274000
     17 O          125.3310   116.3260   114.7610 o          1 SZF      -0.732000
     18 HA         126.9160   118.6470   114.1130 h1         1 SZF       0.032700
     19 H253       124.7670   119.0620   110.6220 h1         1 SZF       0.012367
     20 H252       124.2260   117.7780   111.7040 h1         1 SZF       0.012367
     21 H251       123.8740   119.4690   112.0710 h1         1 SZF       0.012367
     22 H271       123.8880   118.8610   114.3220 hc         1 SZF       0.052700
     23 H272       125.0170   118.6690   115.6280 hc         1 SZF       0.052700
     24 H291       127.1240   120.9170   115.4850 h4         1 SZF       0.221000
     25 H323       127.4930   124.7740   116.7930 h1         1 SZF       0.042033
     26 H321       125.7700   124.3620   116.9300 h1         1 SZF       0.042033
     27 H322       127.0160   123.1520   117.3390 h1         1 SZF       0.042033
     28 H341       124.4820   125.0040   114.4150 ha         1 SZF       0.107000
     29 H351       122.1810   124.8420   113.5230 ha         1 SZF       0.093000
     30 H361       121.1190   122.6490   113.1480 ha         1 SZF       0.098000
     31 H371       122.3220   120.5580   113.6440 ha         1 SZF       0.120000
     32 H          126.6060   118.4810   111.8390 hn         1 SZF       0.412000
     33 OXT        126.3210   116.2600   112.7660 o          1 SZF      -0.732000
@<TRIPOS>BOND
     1     1     3 1   
     2     1    13 1   
     3     1    14 1   
     4     1    18 1   
     5     2    14 1   
     6     2    19 1   
     7     2    20 1   
     8     2    21 1   
     9     3     4 1   
    10     3    22 1   
    11     3    23 1   
    12     4     5 2   
    13     4    12 1   
    14     5    15 1   
    15     5    24 1   
    16     6    16 1   
    17     6    25 1   
    18     6    26 1   
    19     6    27 1   
    20     7     8 ar  
    21     7    12 ar  
    22     7    15 1   
    23     8     9 ar  
    24     8    28 1   
    25     9    10 ar  
    26     9    29 1   
    27    10    11 ar  
    28    10    30 1   
    29    11    12 ar  
    30    11    31 1   
    31    13    17 1   
    32    13    33 1   
    33    14    32 1   
    34    15    16 1   
@<TRIPOS>SUBSTRUCTURE
     1 SZF         1 TEMP              0 ****  ****    0 ROOT
