@<TRIPOS>MOLECULE
SZG
   45    47     1     0     0
SMALL
abcg2


@<TRIPOS>ATOM
      1 N1          22.8500   -37.5740     5.5510 ns         1 SZG      -0.147000
      2 C4          25.4930   -38.4890     3.2670 ca         1 SZG      -0.134000
      3 C5          24.6940   -37.6220     4.0060 ca         1 SZG      -0.101600
      4 C6          24.5570   -36.2890     3.6300 ca         1 SZG      -0.134000
      5 C7          24.0430   -38.1580     5.2430 c          1 SZG       0.622700
      6 C8          22.0560   -37.8120     6.6670 ca         1 SZG      -0.023000
      7 C10         19.8690   -37.6400     7.7230 ca         1 SZG      -0.096000
      8 C13         22.5560   -38.3390     7.8570 ca         1 SZG      -0.025000
      9 C15         23.7570   -41.9100     8.7980 ca         1 SZG      -0.100000
     10 C17         23.2710   -42.7300     6.5990 ca         1 SZG       0.094100
     11 C20         24.1380   -42.6860     4.4120 c3         1 SZG       0.387300
     12 C1          25.2190   -35.8530     2.5000 ca         1 SZG       0.195500
     13 C2          26.0070   -36.6850     1.7290 ca         1 SZG      -0.179000
     14 C3          26.1220   -38.0000     2.1400 ca         1 SZG       0.195500
     15 F1          25.1010   -34.5720     2.1410 f          1 SZG      -0.165500
     16 F2          26.8810   -38.8220     1.4100 f          1 SZG      -0.165500
     17 O1          24.5560   -39.0440     5.8930 o          1 SZG      -0.548100
     18 C9          20.6970   -37.4730     6.6250 ca         1 SZG       0.106000
     19 C11         20.3700   -38.1750     8.8950 ca         1 SZG      -0.046000
     20 C12         21.7120   -38.5180     8.9400 ca         1 SZG      -0.278500
     21 CL1         20.0160   -36.8250     5.1760 cl         1 SZG      -0.189000
     22 S1          22.3470   -39.3240    10.3870 sy         1 SZG       1.137600
     23 N2          21.9910   -40.9380    10.1580 nu         1 SZG      -0.853100
     24 O2          23.7910   -39.1920    10.3780 o          1 SZG      -0.521500
     25 O3          21.5750   -38.9150    11.5440 o          1 SZG      -0.521500
     26 C14         22.4260   -41.5420     8.9500 ca         1 SZG       0.227000
     27 C16         24.1840   -42.4950     7.6150 ca         1 SZG      -0.088000
     28 C18         21.9390   -42.3760     6.7440 ca         1 SZG      -0.088000
     29 C19         21.5210   -41.7740     7.9190 ca         1 SZG      -0.100000
     30 F3          25.2560   -41.9980     4.7480 f          1 SZG      -0.133000
     31 F4          23.2420   -41.7550     4.0100 f          1 SZG      -0.133000
     32 H1          22.4460   -36.9730     4.8470 hn         1 SZG       0.169000
     33 H2          25.6120   -39.5250     3.5540 ha         1 SZG       0.151000
     34 H3          23.9790   -35.5800     4.2100 ha         1 SZG       0.151000
     35 H4          18.8280   -37.3570     7.6560 ha         1 SZG       0.136000
     36 H5          23.6000   -38.5970     7.9360 ha         1 SZG       0.172000
     37 H6          24.4600   -41.7550     9.6050 ha         1 SZG       0.133000
     38 H7          24.3580   -43.3670     3.5930 h3         1 SZG       0.103700
     39 H8          26.5160   -36.3230     0.8450 ha         1 SZG       0.155000
     40 H9          19.7150   -38.3150     9.7450 ha         1 SZG       0.140000
     41 H10         21.0170   -41.1210    10.3810 hn         1 SZG       0.485000
     42 H11         25.2160   -42.7990     7.5060 ha         1 SZG       0.136000
     43 H12         21.2270   -42.5780     5.9550 ha         1 SZG       0.136000
     44 H13         20.4840   -41.4830     8.0340 ha         1 SZG       0.133000
     45 O4          23.6690   -43.4040     5.4590 os         1 SZG      -0.394100
@<TRIPOS>BOND
     1     1     5 1   
     2     1     6 1   
     3     1    32 1   
     4     2     3 ar  
     5     2    14 ar  
     6     2    33 1   
     7     3     4 ar  
     8     3     5 1   
     9     4    12 ar  
    10     4    34 1   
    11     5    17 2   
    12     6     8 ar  
    13     6    18 ar  
    14     7    18 ar  
    15     7    19 ar  
    16     7    35 1   
    17     8    20 ar  
    18     8    36 1   
    19     9    26 ar  
    20     9    27 ar  
    21     9    37 1   
    22    10    27 ar  
    23    10    28 ar  
    24    10    45 1   
    25    11    30 1   
    26    11    31 1   
    27    11    38 1   
    28    11    45 1   
    29    12    13 ar  
    30    12    15 1   
    31    13    14 ar  
    32    13    39 1   
    33    14    16 1   
    34    18    21 1   
    35    19    20 ar  
    36    19    40 1   
    37    20    22 1   
    38    22    23 1   
    39    22    24 2   
    40    22    25 2   
    41    23    26 1   
    42    23    41 1   
    43    26    29 ar  
    44    27    42 1   
    45    28    29 ar  
    46    28    43 1   
    47    29    44 1   
@<TRIPOS>SUBSTRUCTURE
     1 SZG         1 TEMP              0 ****  ****    0 ROOT
