@<TRIPOS>MOLECULE
SZG
   45    47     1     0     0
SMALL
No Charge or Current Charge


@<TRIPOS>ATOM
      1 N1          23.0580   -37.3280     5.7180 ns         1 SZG      -0.147000
      2 C4          26.0700   -37.9550     3.5550 ca         1 SZG      -0.134000
      3 C5          24.8630   -37.3920     4.0360 ca         1 SZG      -0.101600
      4 C6          24.2650   -36.3490     3.2790 ca         1 SZG      -0.134000
      5 C7          24.2540   -37.9160     5.3280 c          1 SZG       0.622700
      6 C8          22.2110   -37.5410     6.8440 ca         1 SZG      -0.023000
      7 C10         20.0150   -37.2290     7.8780 ca         1 SZG      -0.096000
      8 C13         22.6320   -38.2440     7.9960 ca         1 SZG      -0.025000
      9 C15         23.5100   -41.5030     8.2220 ca         1 SZG      -0.100000
     10 C17         22.7980   -42.9460     6.3840 ca         1 SZG       0.094100
     11 C20         24.1710   -43.4700     4.3590 c3         1 SZG       0.387300
     12 C1          24.8620   -35.8990     2.0890 ca         1 SZG       0.195500
     13 C2          26.0550   -36.4670     1.6280 ca         1 SZG      -0.179000
     14 C3          26.6550   -37.4950     2.3640 ca         1 SZG       0.195500
     15 F1          24.2780   -34.9070     1.3830 f          1 SZG      -0.165500
     16 F2          27.8060   -38.0480     1.9250 f          1 SZG      -0.165500
     17 O1          24.7950   -38.8130     5.9640 o          1 SZG      -0.548100
     18 C9          20.8980   -37.0240     6.8060 ca         1 SZG       0.106000
     19 C11         20.4280   -37.9550     9.0060 ca         1 SZG      -0.046000
     20 C12         21.7420   -38.4620     9.0690 ca         1 SZG      -0.278500
     21 Cl1         20.3310   -36.1220     5.3990 cl         1 SZG      -0.189000
     22 S1          22.2770   -39.4310    10.4910 sy         1 SZG       1.137600
     23 N2          21.9550   -41.0250    10.0570 nu         1 SZG      -0.853100
     24 O2          23.7340   -39.3750    10.6350 o          1 SZG      -0.521500
     25 O3          21.3680   -39.2130    11.6190 o          1 SZG      -0.521500
     26 C14         22.2640   -41.6670     8.8570 ca         1 SZG       0.227000
     27 C16         23.7780   -42.1290     6.9910 ca         1 SZG      -0.088000
     28 C18         21.5660   -43.1310     7.0320 ca         1 SZG      -0.088000
     29 C19         21.3010   -42.4980     8.2600 ca         1 SZG      -0.100000
     30 F3          25.2650   -43.9160     5.0190 f          1 SZG      -0.133000
     31 F4          24.4070   -42.1820     4.0140 f          1 SZG      -0.133000
     32 H1          22.7090   -36.6290     5.0770 hn         1 SZG       0.169000
     33 H2          26.5630   -38.7560     4.1010 ha         1 SZG       0.151000
     34 H3          23.3390   -35.8730     3.5920 ha         1 SZG       0.151000
     35 H4          19.0040   -36.8330     7.8290 ha         1 SZG       0.136000
     36 H5          23.6460   -38.6260     8.0690 ha         1 SZG       0.172000
     37 H6          24.2840   -40.8930     8.6760 ha         1 SZG       0.133000
     38 H7          24.0610   -44.0570     3.4410 h3         1 SZG       0.103700
     39 H8          26.5100   -36.1140     0.7080 ha         1 SZG       0.155000
     40 H9          19.7270   -38.1200     9.8220 ha         1 SZG       0.140000
     41 H10         21.0380   -41.2100    10.4420 hn         1 SZG       0.485000
     42 H11         24.7470   -41.9630     6.5320 ha         1 SZG       0.136000
     43 H12         20.8080   -43.7630     6.5750 ha         1 SZG       0.136000
     44 H13         20.3360   -42.6460     8.7390 ha         1 SZG       0.133000
     45 O4          22.9820   -43.5880     5.1710 os         1 SZG      -0.394100
@<TRIPOS>BOND
     1     1     5 1   
     2     1     6 1   
     3     1    32 1   
     4     2     3 ar  
     5     2    14 ar  
     6     2    33 1   
     7     3     4 ar  
     8     3     5 1   
     9     4    12 ar  
    10     4    34 1   
    11     5    17 2   
    12     6     8 ar  
    13     6    18 ar  
    14     7    18 ar  
    15     7    19 ar  
    16     7    35 1   
    17     8    20 ar  
    18     8    36 1   
    19     9    26 ar  
    20     9    27 ar  
    21     9    37 1   
    22    10    27 ar  
    23    10    28 ar  
    24    10    45 1   
    25    11    30 1   
    26    11    31 1   
    27    11    38 1   
    28    11    45 1   
    29    12    13 ar  
    30    12    15 1   
    31    13    14 ar  
    32    13    39 1   
    33    14    16 1   
    34    18    21 1   
    35    19    20 ar  
    36    19    40 1   
    37    20    22 1   
    38    22    23 1   
    39    22    24 2   
    40    22    25 2   
    41    23    26 1   
    42    23    41 1   
    43    26    29 ar  
    44    27    42 1   
    45    28    29 ar  
    46    28    43 1   
    47    29    44 1   
@<TRIPOS>SUBSTRUCTURE
     1 SZG         1 TEMP              0 ****  ****    0 ROOT
