@<TRIPOS>MOLECULE
SZJ
   45    47     1     0     0
SMALL
No Charge or Current Charge


@<TRIPOS>ATOM
      1 N1          23.2770   -37.2090     5.8900 ns         1 SZJ      -0.143000
      2 C4          26.2810   -37.7540     3.6890 ca         1 SZJ      -0.136500
      3 C5          25.0770   -37.2080     4.1980 ca         1 SZJ      -0.099600
      4 C6          24.4770   -36.1360     3.4850 ca         1 SZJ      -0.136500
      5 C7          24.4730   -37.7810     5.4720 c          1 SZJ       0.620700
      6 C8          22.4490   -37.4590     7.0200 ca         1 SZJ      -0.031000
      7 C10         20.2630   -37.1800     8.0730 ca         1 SZJ      -0.099000
      8 C13         22.8850   -38.1840     8.1510 ca         1 SZJ      -0.036000
      9 C15         23.6800   -41.4850     8.3170 ca         1 SZJ      -0.100500
     10 C17         22.9230   -42.9900     6.5470 ca         1 SZJ       0.088100
     11 C20         24.2290   -43.5540     4.4880 c3         1 SZJ       0.386300
     12 C1          25.0700   -35.6390     2.3120 ca         1 SZJ       0.195500
     13 C2          26.2600   -36.1910     1.8230 ca         1 SZJ      -0.180000
     14 C3          26.8610   -37.2480     2.5150 ca         1 SZJ       0.195500
     15 F1          24.4850   -34.6190     1.6480 f          1 SZJ      -0.166000
     16 F2          28.0100   -37.7850     2.0500 f          1 SZJ      -0.166000
     17 O1          25.0170   -38.7020     6.0710 o          1 SZJ      -0.551100
     18 C9          21.1380   -36.9480     6.9980 ca         1 SZJ      -0.118000
     19 C11         20.6890   -37.9250     9.1840 ca         1 SZJ      -0.054000
     20 C12         22.0060   -38.4260     9.2290 ca         1 SZJ      -0.276500
     21 S1          22.5570   -39.4120    10.6340 sy         1 SZJ       1.130600
     22 N2          22.1930   -41.0000    10.2080 nu         1 SZJ      -0.849100
     23 O2          24.0180   -39.3850    10.7430 o          1 SZJ      -0.522000
     24 O3          21.6810   -39.1790    11.7840 o          1 SZJ      -0.522000
     25 C14         22.4650   -41.6580     9.0080 ca         1 SZJ       0.228000
     26 C16         23.9100   -42.1380     7.0920 ca         1 SZJ      -0.089500
     27 C18         21.7220   -43.1810     7.2490 ca         1 SZJ      -0.089500
     28 C19         21.4950   -42.5220     8.4710 ca         1 SZJ      -0.100500
     29 F3          24.4340   -42.2740     4.0960 f          1 SZJ      -0.135000
     30 F4          25.3520   -43.9650     5.1230 f          1 SZJ      -0.135000
     31 H1          22.9240   -36.4870     5.2780 hn         1 SZJ       0.157000
     32 H2          26.7750   -38.5760     4.2020 ha         1 SZJ       0.150000
     33 H3          23.5550   -35.6710     3.8220 ha         1 SZJ       0.150000
     34 H4          19.2480   -36.7880     8.0410 ha         1 SZJ       0.121000
     35 H5          23.9020   -38.5610     8.2070 ha         1 SZJ       0.173000
     36 H6          24.4600   -40.8510     8.7220 ha         1 SZJ       0.134500
     37 H7          24.0950   -44.1710     3.5930 h3         1 SZJ       0.104700
     38 H8          26.7120   -35.8020     0.9150 ha         1 SZJ       0.155000
     39 H9          20.7880   -36.3790     6.1400 ha         1 SZJ       0.114000
     40 H10         19.9960   -38.1070    10.0030 ha         1 SZJ       0.137000
     41 H11         21.2880   -41.1740    10.6240 hn         1 SZJ       0.483000
     42 H12         24.8560   -41.9670     6.5890 ha         1 SZJ       0.136000
     43 H13         20.9590   -43.8390     6.8410 ha         1 SZJ       0.136000
     44 H14         20.5550   -42.6770     8.9940 ha         1 SZJ       0.134500
     45 O4          23.0710   -43.6630     5.3450 os         1 SZJ      -0.391100
@<TRIPOS>BOND
     1     1     5 1   
     2     1     6 1   
     3     1    31 1   
     4     2     3 ar  
     5     2    14 ar  
     6     2    32 1   
     7     3     4 ar  
     8     3     5 1   
     9     4    12 ar  
    10     4    33 1   
    11     5    17 2   
    12     6     8 ar  
    13     6    18 ar  
    14     7    18 ar  
    15     7    19 ar  
    16     7    34 1   
    17     8    20 ar  
    18     8    35 1   
    19     9    25 ar  
    20     9    26 ar  
    21     9    36 1   
    22    10    26 ar  
    23    10    27 ar  
    24    10    45 1   
    25    11    29 1   
    26    11    30 1   
    27    11    37 1   
    28    11    45 1   
    29    12    13 ar  
    30    12    15 1   
    31    13    14 ar  
    32    13    38 1   
    33    14    16 1   
    34    18    39 1   
    35    19    20 ar  
    36    19    40 1   
    37    20    21 1   
    38    21    22 1   
    39    21    23 2   
    40    21    24 2   
    41    22    25 1   
    42    22    41 1   
    43    25    28 ar  
    44    26    42 1   
    45    27    28 ar  
    46    27    43 1   
    47    28    44 1   
@<TRIPOS>SUBSTRUCTURE
     1 SZJ         1 TEMP              0 ****  ****    0 ROOT
