@<TRIPOS>MOLECULE
SZJ
   45    47     1     0     0
SMALL
bcc


@<TRIPOS>ATOM
      1 N1          23.1150   -37.5810     5.8140 ns         1 SZJ      -0.469100
      2 C4          25.7940   -38.4180     3.5670 ca         1 SZJ      -0.154500
      3 C5          24.9210   -37.5580     4.2250 ca         1 SZJ      -0.099600
      4 C6          24.6230   -36.3080     3.6910 ca         1 SZJ      -0.154500
      5 C7          24.3770   -38.0040     5.5470 c          1 SZJ       0.687700
      6 C8          22.3530   -37.7840     6.9660 ca         1 SZJ       0.061600
      7 C10         20.2070   -37.4810     8.0410 ca         1 SZJ      -0.117000
      8 C13         22.8380   -38.3940     8.1230 ca         1 SZJ      -0.054000
      9 C15         23.8660   -41.9720     8.8680 ca         1 SZJ      -0.118500
     10 C17         23.3850   -42.5390     6.5910 ca         1 SZJ       0.088100
     11 C20         24.3560   -42.2300     4.4790 c3         1 SZJ       0.605700
     12 C1          25.2030   -35.9510     2.4890 ca         1 SZJ       0.160400
     13 C2          26.0560   -36.7850     1.7940 ca         1 SZJ      -0.198000
     14 C3          26.3300   -38.0150     2.3620 ca         1 SZJ       0.160400
     15 F1          24.9360   -34.7440     1.9820 f          1 SZJ      -0.130900
     16 F2          27.1560   -38.8430     1.7160 f          1 SZJ      -0.130900
     17 O1          25.0420   -38.6960     6.2920 o          1 SZJ      -0.551100
     18 C9          21.0310   -37.3320     6.9410 ca         1 SZJ      -0.136000
     19 C11         20.6720   -38.0950     9.1950 ca         1 SZJ      -0.072000
     20 C12         21.9840   -38.5380     9.2080 ca         1 SZJ      -0.276500
     21 S1          22.5610   -39.4540    10.6140 sy         1 SZJ       1.272200
     22 N2          22.1290   -41.0360    10.2880 nu         1 SZJ      -0.655500
     23 O2          24.0100   -39.3970    10.6310 o          1 SZJ      -0.592800
     24 O3          21.7980   -39.0790    11.7890 o          1 SZJ      -0.592800
     25 C14         22.5470   -41.5720     9.0420 ca         1 SZJ       0.089600
     26 C16         24.2910   -42.4460     7.6360 ca         1 SZJ      -0.107500
     27 C18         22.0600   -42.1730     6.7640 ca         1 SZJ      -0.107500
     28 C19         21.6440   -41.6820     7.9890 ca         1 SZJ      -0.118500
     29 F3          23.6030   -41.1250     4.2680 f          1 SZJ      -0.256300
     30 F4          25.5490   -41.7760     4.9360 f          1 SZJ      -0.256300
     31 H1          22.6300   -37.1040     5.0670 hn         1 SZJ       0.323500
     32 H2          26.0440   -39.3860     3.9780 ha         1 SZJ       0.168000
     33 H3          23.9830   -35.5990     4.2010 ha         1 SZJ       0.168000
     34 H4          19.1900   -37.1170     7.9970 ha         1 SZJ       0.139000
     35 H5          23.8530   -38.7500     8.1760 ha         1 SZJ       0.191000
     36 H6          24.5630   -41.9170     9.6920 ha         1 SZJ       0.152500
     37 H7          24.5020   -42.7650     3.5430 h3         1 SZJ       0.104700
     38 H8          26.4940   -36.4880     0.8500 ha         1 SZJ       0.173000
     39 H9          20.6440   -36.8540     6.0490 ha         1 SZJ       0.132000
     40 H10         20.0220   -38.2180    10.0500 ha         1 SZJ       0.155000
     41 H11         21.1400   -41.1750    10.4790 hn         1 SZJ       0.427800
     42 H12         25.3150   -42.7680     7.5080 ha         1 SZJ       0.154000
     43 H13         21.3560   -42.2670     5.9470 ha         1 SZJ       0.154000
     44 H14         20.6160   -41.3700     8.1230 ha         1 SZJ       0.152500
     45 O4          23.7750   -43.0630     5.3730 os         1 SZJ      -0.367900
@<TRIPOS>BOND
     1     1     5 1   
     2     1     6 1   
     3     1    31 1   
     4     2     3 ar  
     5     2    14 ar  
     6     2    32 1   
     7     3     4 ar  
     8     3     5 1   
     9     4    12 ar  
    10     4    33 1   
    11     5    17 2   
    12     6     8 ar  
    13     6    18 ar  
    14     7    18 ar  
    15     7    19 ar  
    16     7    34 1   
    17     8    20 ar  
    18     8    35 1   
    19     9    25 ar  
    20     9    26 ar  
    21     9    36 1   
    22    10    26 ar  
    23    10    27 ar  
    24    10    45 1   
    25    11    29 1   
    26    11    30 1   
    27    11    37 1   
    28    11    45 1   
    29    12    13 ar  
    30    12    15 1   
    31    13    14 ar  
    32    13    38 1   
    33    14    16 1   
    34    18    39 1   
    35    19    20 ar  
    36    19    40 1   
    37    20    21 1   
    38    21    22 1   
    39    21    23 2   
    40    21    24 2   
    41    22    25 1   
    42    22    41 1   
    43    25    28 ar  
    44    26    42 1   
    45    27    28 ar  
    46    27    43 1   
    47    28    44 1   
@<TRIPOS>SUBSTRUCTURE
     1 SZJ         1 TEMP              0 ****  ****    0 ROOT
