@<TRIPOS>MOLECULE
SZK
   33    35     1     0     0
SMALL
bcc


@<TRIPOS>ATOM
      1 C10        -54.6000    16.4660   -24.8680 cc         1 SZK       0.230600
      2 N12        -50.1230    15.0940   -26.7480 nc         1 SZK      -0.640100
      3 C13        -49.4990    14.7100   -27.9100 ca         1 SZK       0.108400
      4 C15        -48.8330    13.3950   -29.7880 ca         1 SZK      -0.144000
      5 C17        -47.9550    15.6480   -29.5640 ca         1 SZK      -0.129000
      6 C01        -49.1310    19.0570   -28.3700 c3         1 SZK      -0.118100
      7 N03        -48.8280    16.7720   -27.4790 na         1 SZK      -0.192300
      8 C04        -49.7060    16.3190   -26.5350 cd         1 SZK       0.667700
      9 N05        -50.0770    17.0780   -25.4860 nu         1 SZK      -0.860200
     10 C06        -51.0410    16.6140   -24.5270 c3         1 SZK       0.224500
     11 C07        -52.4410    16.7360   -25.0340 cc         1 SZK       0.216000
     12 C08        -52.9780    17.2910   -26.1470 cd         1 SZK      -0.254300
     13 C09        -54.3940    17.1120   -26.0370 cd         1 SZK      -0.266300
     14 O11        -53.4180    16.2340   -24.2520 os         1 SZK      -0.330800
     15 C14        -49.5700    13.5130   -28.6150 ca         1 SZK      -0.087000
     16 C16        -48.0400    14.4440   -30.2570 ca         1 SZK      -0.130000
     17 C18        -48.6890    15.7510   -28.3960 ca         1 SZK      -0.085200
     18 H1         -55.4860    16.1190   -24.3620 h4         1 SZK       0.051100
     19 H2         -48.8750    12.4720   -30.3510 ha         1 SZK       0.129000
     20 H3         -47.3410    16.4600   -29.9340 ha         1 SZK       0.130000
     21 H4         -48.6360    20.0230   -28.4640 hc         1 SZK       0.048033
     22 H5         -49.3330    18.6810   -29.3730 hc         1 SZK       0.048033
     23 H6         -50.0860    19.2180   -27.8680 hc         1 SZK       0.048033
     24 H7         -48.0310    18.4780   -26.5970 h1         1 SZK       0.054700
     25 H8         -47.2800    17.9840   -28.0830 h1         1 SZK       0.054700
     26 H9         -49.7490    18.0240   -25.4030 hn         1 SZK       0.442800
     27 H10        -50.8260    15.5790   -24.2510 h1         1 SZK       0.073200
     28 H11        -50.9190    17.2110   -23.6210 h1         1 SZK       0.073200
     29 H12        -52.4430    17.7670   -26.9520 ha         1 SZK       0.157000
     30 H13        -55.1490    17.4240   -26.7390 ha         1 SZK       0.158000
     31 H14        -50.1870    12.6970   -28.2600 ha         1 SZK       0.144000
     32 H15        -47.4830    14.3230   -31.1770 ha         1 SZK       0.127000
     33 C02        -48.2480    18.0940   -27.5940 c3         1 SZK       0.052300
@<TRIPOS>BOND
     1     1    13 2   
     2     1    14 1   
     3     1    18 1   
     4     2     3 1   
     5     2     8 2   
     6     3    15 ar  
     7     3    17 ar  
     8     4    15 ar  
     9     4    16 ar  
    10     4    19 1   
    11     5    16 ar  
    12     5    17 ar  
    13     5    20 1   
    14     6    21 1   
    15     6    22 1   
    16     6    23 1   
    17     6    33 1   
    18     7     8 1   
    19     7    17 1   
    20     7    33 1   
    21     8     9 1   
    22     9    10 1   
    23     9    26 1   
    24    10    11 1   
    25    10    27 1   
    26    10    28 1   
    27    11    12 2   
    28    11    14 1   
    29    12    13 1   
    30    12    29 1   
    31    13    30 1   
    32    15    31 1   
    33    16    32 1   
    34    24    33 1   
    35    25    33 1   
@<TRIPOS>SUBSTRUCTURE
     1 SZK         1 TEMP              0 ****  ****    0 ROOT
