@<TRIPOS>MOLECULE
SZK
   33    35     1     0     0
SMALL
No Charge or Current Charge


@<TRIPOS>ATOM
      1 C10        -54.5770    16.2560   -25.2110 cc         1 SZK       0.120900
      2 N12        -50.0070    14.9860   -26.6140 nc         1 SZK      -0.640100
      3 C13        -49.4260    14.6680   -27.8330 ca         1 SZK       0.108400
      4 C15        -48.8390    13.3280   -29.7640 ca         1 SZK      -0.126000
      5 C17        -48.0570    15.6420   -29.5930 ca         1 SZK      -0.111000
      6 C01        -49.1880    19.0490   -28.4610 c3         1 SZK      -0.118100
      7 N03        -48.8200    16.7700   -27.4850 na         1 SZK      -0.221600
      8 C04        -49.6200    16.2560   -26.4580 cd         1 SZK       0.667700
      9 N05        -49.9950    16.9800   -25.3720 nu         1 SZK      -0.915400
     10 C06        -51.0380    16.6050   -24.3930 c3         1 SZK       0.224500
     11 C07        -52.4320    16.7530   -24.9630 cc         1 SZK       0.106300
     12 C08        -52.9490    17.6370   -25.8740 cd         1 SZK      -0.171000
     13 C09        -54.3130    17.3190   -26.0320 cd         1 SZK      -0.183000
     14 O11        -53.4280    15.8960   -24.5420 os         1 SZK      -0.242000
     15 C14        -49.5000    13.4470   -28.5210 ca         1 SZK      -0.069000
     16 C16        -48.1210    14.4230   -30.2980 ca         1 SZK      -0.112000
     17 C18        -48.7230    15.7220   -28.3610 ca         1 SZK      -0.085200
     18 H1         -55.4800    15.6930   -25.0160 h4         1 SZK       0.051100
     19 H2         -48.8850    12.3900   -30.3120 ha         1 SZK       0.111000
     20 H3         -47.5080    16.4880   -29.9990 ha         1 SZK       0.112000
     21 H4         -48.7280    20.0370   -28.5820 hc         1 SZK       0.048033
     22 H5         -49.3970    18.6420   -29.4570 hc         1 SZK       0.048033
     23 H6         -50.1400    19.1740   -27.9320 hc         1 SZK       0.048033
     24 H7         -48.0300    18.5530   -26.6980 h1         1 SZK       0.054700
     25 H8         -47.2960    18.0220   -28.2150 h1         1 SZK       0.054700
     26 H9         -49.6870    17.9490   -25.3950 hn         1 SZK       0.498000
     27 H10        -50.8970    15.5660   -24.0640 h1         1 SZK       0.073200
     28 H11        -50.9610    17.2390   -23.4980 h1         1 SZK       0.073200
     29 H12        -52.4030    18.4290   -26.3770 ha         1 SZK       0.139000
     30 H13        -55.0270    17.8170   -26.6800 ha         1 SZK       0.140000
     31 H14        -50.0570    12.6120   -28.1050 ha         1 SZK       0.126000
     32 H15        -47.6160    14.3240   -31.2570 ha         1 SZK       0.109000
     33 C02        -48.2490    18.1140   -27.6790 c3         1 SZK       0.081600
@<TRIPOS>BOND
     1     1    13 2   
     2     1    14 1   
     3     1    18 1   
     4     2     3 1   
     5     2     8 2   
     6     3    15 ar  
     7     3    17 ar  
     8     4    15 ar  
     9     4    16 ar  
    10     4    19 1   
    11     5    16 ar  
    12     5    17 ar  
    13     5    20 1   
    14     6    21 1   
    15     6    22 1   
    16     6    23 1   
    17     6    33 1   
    18     7     8 1   
    19     7    17 1   
    20     7    33 1   
    21     8     9 1   
    22     9    10 1   
    23     9    26 1   
    24    10    11 1   
    25    10    27 1   
    26    10    28 1   
    27    11    12 2   
    28    11    14 1   
    29    12    13 1   
    30    12    29 1   
    31    13    30 1   
    32    15    31 1   
    33    16    32 1   
    34    24    33 1   
    35    25    33 1   
@<TRIPOS>SUBSTRUCTURE
     1 SZK         1 TEMP              0 ****  ****    0 ROOT
