@<TRIPOS>MOLECULE
SZL
   17    18     1     0     0
SMALL
bcc


@<TRIPOS>ATOM
      1 C1           0.3840    -0.4910     0.0120 ca         1 SZL      -0.183200
      2 N4           1.0520    -1.6860     0.0180 nc         1 SZL      -0.519100
      3 C9           2.3090    -1.3460     0.0130 cd         1 SZL       0.399700
      4 N5           2.5070     0.0000     0.0050 na         1 SZL      -0.359000
      5 C2           1.2780     0.5780     0.0040 ca         1 SZL       0.434800
      6 N6           0.9600     1.8690    -0.0030 nb         1 SZL      -0.724000
      7 C10         -0.3430     2.0650    -0.0030 ca         1 SZL       0.703900
      8 N7          -1.3070     1.1390     0.0030 nb         1 SZL      -0.828000
      9 C3          -0.9700    -0.1360     0.0120 ca         1 SZL       0.747600
     10 O8          -1.8830    -1.0850     0.0210 os         1 SZL      -0.403100
     11 C11         -3.2570    -0.7040     0.0220 c3         1 SZL       0.132700
     12 H9           3.1410    -2.0340     0.0160 h5         1 SZL       0.068800
     13 H5           3.3980     0.4720     0.0020 hn         1 SZL       0.321700
     14 H10         -0.6800     3.0950    -0.0090 h5         1 SZL       0.051100
     15 H111        -3.8190    -1.6330     0.0450 h1         1 SZL       0.052033
     16 H112        -3.5060    -0.1060     0.8990 h1         1 SZL       0.052033
     17 H113        -3.5180    -0.1440    -0.8760 h1         1 SZL       0.052033
@<TRIPOS>BOND
     1     1     2 1   
     2     1     5 ar  
     3     1     9 ar  
     4     2     3 2   
     5     3     4 1   
     6     3    12 1   
     7     4     5 1   
     8     4    13 1   
     9     5     6 ar  
    10     6     7 ar  
    11     7     8 ar  
    12     7    14 1   
    13     8     9 ar  
    14     9    10 1   
    15    10    11 1   
    16    11    15 1   
    17    11    16 1   
    18    11    17 1   
@<TRIPOS>SUBSTRUCTURE
     1 SZL         1 TEMP              0 ****  ****    0 ROOT
