@<TRIPOS>MOLECULE
SZL
   17    18     1     0     0
SMALL
No Charge or Current Charge


@<TRIPOS>ATOM
      1 C1           0.4170    -0.4220     0.0120 ca         1 SZL      -0.052600
      2 N4           1.0150    -1.6790     0.0210 nc         1 SZL      -0.519100
      3 C9           2.3250    -1.3770     0.0150 cd         1 SZL       0.399700
      4 N5           2.5780     0.0010     0.0040 na         1 SZL      -0.409300
      5 C2           1.3450     0.5900     0.0020 ca         1 SZL       0.106500
      6 N6           0.9970     1.8890    -0.0070 nb         1 SZL      -0.198000
      7 C10         -0.3320     2.1400    -0.0060 ca         1 SZL       0.177900
      8 N7          -1.3280     1.2240     0.0030 nb         1 SZL      -0.302000
      9 C3          -0.9580    -0.0800     0.0130 ca         1 SZL       0.419300
     10 O8          -1.9060    -1.0860     0.0230 os         1 SZL      -0.426300
     11 C11         -3.3140    -0.7810     0.0240 c3         1 SZL       0.155900
     12 H9           3.1380    -2.0950     0.0190 h5         1 SZL       0.068800
     13 H5           3.4840     0.4510    -0.0010 hn         1 SZL       0.372000
     14 H10         -0.6300     3.1870    -0.0130 h5         1 SZL       0.051100
     15 H111        -3.9060    -1.7050     0.0320 h1         1 SZL       0.052033
     16 H112        -3.5880    -0.1950     0.9110 h1         1 SZL       0.052033
     17 H113        -3.5920    -0.2090    -0.8710 h1         1 SZL       0.052033
@<TRIPOS>BOND
     1     1     2 1   
     2     1     5 ar  
     3     1     9 ar  
     4     2     3 2   
     5     3     4 1   
     6     3    12 1   
     7     4     5 1   
     8     4    13 1   
     9     5     6 ar  
    10     6     7 ar  
    11     7     8 ar  
    12     7    14 1   
    13     8     9 ar  
    14     9    10 1   
    15    10    11 1   
    16    11    15 1   
    17    11    16 1   
    18    11    17 1   
@<TRIPOS>SUBSTRUCTURE
     1 SZL         1 TEMP              0 ****  ****    0 ROOT
