@<TRIPOS>MOLECULE
SZN
   35    36     1     0     0
SMALL
abcg2


@<TRIPOS>ATOM
      1 N1         -36.7690     2.0520     0.9570 n          1 SZN      -0.387400
      2 C4         -38.6080     8.9420     1.5930 ca         1 SZN      -0.059000
      3 C5         -37.7740     7.9450     1.0970 ca         1 SZN      -0.148600
      4 C6         -36.6260     8.3010     0.3890 ca         1 SZN      -0.089000
      5 C7         -38.1330     6.5220     1.3830 c          1 SZN       0.614700
      6 C8         -37.9190     4.1960     0.6120 c3         1 SZN       0.079000
      7 C10        -36.7070     1.1920    -0.1210 c          1 SZN       0.565000
      8 C13        -37.1520     1.4310     2.1270 c          1 SZN       0.565000
      9 O2         -37.3120     2.0070     3.1760 o          1 SZN      -0.496500
     10 C12        -37.3360    -0.0370     1.8470 c5         1 SZN      -0.168400
     11 C11        -36.9860    -0.2040     0.3740 c5         1 SZN      -0.168400
     12 O1         -36.4580     1.5370    -1.2500 o          1 SZN      -0.496500
     13 C9         -36.5880     3.4830     0.8460 c3         1 SZN       0.080000
     14 N          -37.7250     5.6170     0.4730 ns         1 SZN      -0.506900
     15 O          -38.7780     6.2260     2.3800 o          1 SZN      -0.592100
     16 C3         -38.3030    10.2750     1.3590 ca         1 SZN      -0.116000
     17 C2         -37.1630    10.6170     0.6480 ca         1 SZN      -0.091000
     18 C1         -36.3050     9.6340     0.1550 ca         1 SZN      -0.083300
     19 C          -35.0640    10.0130    -0.5980 c3         1 SZN      -0.047800
     20 H2         -35.9470     7.5380     0.0260 ha         1 SZN       0.108000
     21 H3         -38.5910     4.0200     1.4490 h1         1 SZN       0.068200
     22 H4         -38.4000     3.8070    -0.2870 h1         1 SZN       0.068200
     23 H5         -38.3680    -0.3110     2.0710 hc         1 SZN       0.087450
     24 H6         -37.7890    -0.6460    -0.2160 hc         1 SZN       0.087450
     25 H7         -36.1200     3.8470     1.7600 h1         1 SZN       0.070200
     26 H8         -35.8990     3.6760     0.0240 h1         1 SZN       0.070200
     27 H9         -37.2530     5.9380    -0.3560 hn         1 SZN       0.316500
     28 H10        -38.9580    11.0500     1.7340 ha         1 SZN       0.118000
     29 H11        -36.9310    11.6620     0.4770 ha         1 SZN       0.113000
     30 H12        -34.3840    10.5930     0.0280 hc         1 SZN       0.043700
     31 H13        -34.5250     9.1350    -0.9510 hc         1 SZN       0.043700
     32 H14        -35.3040    10.6290    -1.4660 hc         1 SZN       0.043700
     33 H15        -36.6970    -0.6190     2.5110 hc         1 SZN       0.087450
     34 H16        -36.0970    -0.8160     0.2190 hc         1 SZN       0.087450
     35 H1         -39.5000     8.6780     2.1430 ha         1 SZN       0.135000
@<TRIPOS>BOND
     1     1     7 1   
     2     1     8 1   
     3     1    13 1   
     4     2     3 ar  
     5     2    16 ar  
     6     2    35 1   
     7     3     4 ar  
     8     3     5 1   
     9     4    18 ar  
    10     4    20 1   
    11     5    14 1   
    12     5    15 2   
    13     6    13 1   
    14     6    14 1   
    15     6    21 1   
    16     6    22 1   
    17     7    11 1   
    18     7    12 2   
    19     8     9 2   
    20     8    10 1   
    21    10    11 1   
    22    10    23 1   
    23    10    33 1   
    24    11    24 1   
    25    11    34 1   
    26    13    25 1   
    27    13    26 1   
    28    14    27 1   
    29    16    17 ar  
    30    16    28 1   
    31    17    18 ar  
    32    17    29 1   
    33    18    19 1   
    34    19    30 1   
    35    19    31 1   
    36    19    32 1   
@<TRIPOS>SUBSTRUCTURE
     1 SZN         1 TEMP              0 ****  ****    0 ROOT
