@<TRIPOS>MOLECULE
SZN
   35    36     1     0     0
SMALL
No Charge or Current Charge


@<TRIPOS>ATOM
      1 N1         -37.0110     1.9370     1.1660 n          1 SZN      -0.387400
      2 C4         -37.9150     8.8400     2.1710 ca         1 SZN      -0.059000
      3 C5         -37.5330     7.9300     1.1580 ca         1 SZN      -0.148600
      4 C6         -36.8270     8.4280     0.0340 ca         1 SZN      -0.089000
      5 C7         -37.8890     6.4640     1.3070 c          1 SZN       0.614700
      6 C8         -37.7260     4.1730     0.2560 c3         1 SZN       0.079000
      7 C10        -36.2190     1.1470     0.3400 c          1 SZN       0.565000
      8 C13        -37.9170     1.2770     1.9880 c          1 SZN       0.565000
      9 O2         -38.3980     1.7200     3.0200 o          1 SZN      -0.496500
     10 C12        -37.9360    -0.1520     1.4260 c5         1 SZN      -0.168400
     11 C11        -36.5090    -0.2840     0.8140 c5         1 SZN      -0.168400
     12 O1         -35.6180     1.5400    -0.6480 o          1 SZN      -0.496500
     13 C9         -36.8190     3.4030     1.2380 c3         1 SZN       0.080000
     14 N          -37.4950     5.6240     0.2860 ns         1 SZN      -0.506900
     15 O          -38.4960     6.0360     2.2790 o          1 SZN      -0.592100
     16 C3         -37.6020    10.2050     2.0640 ca         1 SZN      -0.116000
     17 C2         -36.9030    10.6830     0.9450 ca         1 SZN      -0.091000
     18 C1         -36.5100     9.7960    -0.0720 ca         1 SZN      -0.083300
     19 C          -35.7540    10.3110    -1.2880 c3         1 SZN      -0.047800
     20 H2         -36.5150     7.7650    -0.7680 ha         1 SZN       0.108000
     21 H3         -38.7780     3.9720     0.4970 h1         1 SZN       0.068200
     22 H4         -37.5400     3.8110    -0.7640 h1         1 SZN       0.068200
     23 H5         -38.6660    -0.1760     0.6080 hc         1 SZN       0.087450
     24 H6         -36.3890    -1.0160     0.0080 hc         1 SZN       0.087450
     25 H7         -37.0160     3.7470     2.2620 h1         1 SZN       0.070200
     26 H8         -35.7700     3.6380     1.0150 h1         1 SZN       0.070200
     27 H9         -37.0040     6.0500    -0.4890 hn         1 SZN       0.316500
     28 H10        -37.9040    10.8940     2.8500 ha         1 SZN       0.118000
     29 H11        -36.6670    11.7430     0.8710 ha         1 SZN       0.113000
     30 H12        -35.2360    11.2530    -1.0710 hc         1 SZN       0.043700
     31 H13        -34.9980     9.5910    -1.6210 hc         1 SZN       0.043700
     32 H14        -36.4380    10.4910    -2.1260 hc         1 SZN       0.043700
     33 H15        -38.2110    -0.8900     2.1870 hc         1 SZN       0.087450
     34 H16        -35.8040    -0.5130     1.6220 hc         1 SZN       0.087450
     35 H1         -38.4580     8.4920     3.0470 ha         1 SZN       0.135000
@<TRIPOS>BOND
     1     1     7 1   
     2     1     8 1   
     3     1    13 1   
     4     2     3 ar  
     5     2    16 ar  
     6     2    35 1   
     7     3     4 ar  
     8     3     5 1   
     9     4    18 ar  
    10     4    20 1   
    11     5    14 1   
    12     5    15 2   
    13     6    13 1   
    14     6    14 1   
    15     6    21 1   
    16     6    22 1   
    17     7    11 1   
    18     7    12 2   
    19     8     9 2   
    20     8    10 1   
    21    10    11 1   
    22    10    23 1   
    23    10    33 1   
    24    11    24 1   
    25    11    34 1   
    26    13    25 1   
    27    13    26 1   
    28    14    27 1   
    29    16    17 ar  
    30    16    28 1   
    31    17    18 ar  
    32    17    29 1   
    33    18    19 1   
    34    19    30 1   
    35    19    31 1   
    36    19    32 1   
@<TRIPOS>SUBSTRUCTURE
     1 SZN         1 TEMP              0 ****  ****    0 ROOT
