@<TRIPOS>MOLECULE
SZO
   46    49     1     0     0
SMALL
abcg2


@<TRIPOS>ATOM
      1 C10          1.9840    -2.5030    83.7260 ca         1 SZO      -0.149600
      2 C13          0.0960    -1.3820    85.4180 ca         1 SZO       0.192400
      3 C15          0.6460    -2.7850    83.4860 ca         1 SZO       0.054700
      4 C21          0.2800    -3.6980    82.3510 c3         1 SZO      -0.052800
      5 C24         -4.7860    -1.0780    84.6470 ca         1 SZO      -0.094000
      6 C26         -6.6920    -2.4740    85.1000 ca         1 SZO      -0.101000
      7 C28         -4.4780    -3.2770    85.5920 ca         1 SZO      -0.094000
      8 C1           5.5690    -5.8740    82.3870 c6         1 SZO      -0.075200
      9 C2           5.4240    -6.4570    83.7810 c6         1 SZO      -0.064400
     10 C3           3.9540    -6.5740    84.1400 c6         1 SZO      -0.183400
     11 C4           3.2070    -5.2660    84.0220 c          1 SZO       0.609300
     12 C5           3.7000    -4.2950    83.0370 ce         1 SZO      -0.494400
     13 C6           4.8050    -4.6050    82.2450 c2         1 SZO       0.287900
     14 O7           5.2360    -3.8020    81.3260 oh         1 SZO      -0.538100
     15 C9           3.0770    -3.0050    82.8390 c          1 SZO       0.636900
     16 C11          2.3820    -1.6590    84.7630 ca         1 SZO      -0.042000
     17 C12          1.4520    -1.1090    85.6100 ca         1 SZO      -0.109000
     18 C14         -0.3120    -2.2080    84.3510 ca         1 SZO      -0.193600
     19 C16         -1.7480    -2.4440    84.1810 c          1 SZO       0.580600
     20 N17         -0.7890    -0.8180    86.3090 nc         1 SZO      -0.628100
     21 N18         -2.5430    -1.8640    85.1690 n          1 SZO      -0.268500
     22 C19         -2.0280    -1.0810    86.1580 cd         1 SZO       0.512800
     23 O20         -2.2750    -3.0750    83.2880 o          1 SZO      -0.520000
     24 O22          3.4810    -2.2230    81.9660 o          1 SZO      -0.596100
     25 C23         -3.9560    -2.0790    85.1260 ca         1 SZO       0.023600
     26 C25         -6.1600    -1.2780    84.6390 ca         1 SZO      -0.104500
     27 C27         -5.8510    -3.4720    85.5760 ca         1 SZO      -0.104500
     28 H1          -0.2750    -4.5670    82.6990 hc         1 SZO       0.055700
     29 H2          -0.3410    -3.1950    81.6120 hc         1 SZO       0.055700
     30 H3           1.1650    -4.0650    81.8350 hc         1 SZO       0.055700
     31 H4          -4.3620    -0.1500    84.2850 ha         1 SZO       0.126000
     32 H5          -7.7630    -2.6280    85.0930 ha         1 SZO       0.116000
     33 H6          -3.8170    -4.0450    85.9720 ha         1 SZO       0.126000
     34 H7           5.1790    -6.5770    81.6410 hc         1 SZO       0.080200
     35 H8           6.6120    -5.6920    82.1260 hc         1 SZO       0.080200
     36 H9           5.9020    -7.4350    83.8230 hc         1 SZO       0.056200
     37 H10          5.9380    -5.8190    84.5030 hc         1 SZO       0.056200
     38 H11          3.8130    -6.9600    85.1500 hc         1 SZO       0.072200
     39 H12          3.4660    -7.2840    83.4610 hc         1 SZO       0.072200
     40 H13          4.6300    -2.9900    81.3360 ho         1 SZO       0.549000
     41 H14          3.4340    -1.4500    84.9140 ha         1 SZO       0.119000
     42 H15          1.7470    -0.4640    86.4270 ha         1 SZO       0.136000
     43 H16         -2.7560    -0.6690    86.8470 h5         1 SZO       0.051800
     44 H17         -6.8120    -0.4990    84.2690 ha         1 SZO       0.118500
     45 H18         -6.2630    -4.4030    85.9410 ha         1 SZO       0.118500
     46 O8           2.2160    -5.0640    84.6990 o          1 SZO      -0.533100
@<TRIPOS>BOND
     1     1     3 ar  
     2     1    15 1   
     3     1    16 ar  
     4     2    17 ar  
     5     2    18 ar  
     6     2    20 1   
     7     3     4 1   
     8     3    18 ar  
     9     4    28 1   
    10     4    29 1   
    11     4    30 1   
    12     5    25 ar  
    13     5    26 ar  
    14     5    31 1   
    15     6    26 ar  
    16     6    27 ar  
    17     6    32 1   
    18     7    25 ar  
    19     7    27 ar  
    20     7    33 1   
    21     8     9 1   
    22     8    13 1   
    23     8    34 1   
    24     8    35 1   
    25     9    10 1   
    26     9    36 1   
    27     9    37 1   
    28    10    11 1   
    29    10    38 1   
    30    10    39 1   
    31    11    12 1   
    32    11    46 2   
    33    12    13 2   
    34    12    15 1   
    35    13    14 1   
    36    14    40 1   
    37    15    24 2   
    38    16    17 ar  
    39    16    41 1   
    40    17    42 1   
    41    18    19 1   
    42    19    21 1   
    43    19    23 2   
    44    20    22 2   
    45    21    22 1   
    46    21    25 1   
    47    22    43 1   
    48    26    44 1   
    49    27    45 1   
@<TRIPOS>SUBSTRUCTURE
     1 SZO         1 TEMP              0 ****  ****    0 ROOT
