@<TRIPOS>MOLECULE
SZO
   46    49     1     0     0
SMALL
No Charge or Current Charge


@<TRIPOS>ATOM
      1 C10          2.3560    -2.0740    83.9470 ca         1 SZO      -0.149600
      2 C13          0.0940    -0.9760    85.2590 ca         1 SZO       0.192400
      3 C15          1.0610    -2.5930    83.6670 ca         1 SZO       0.054700
      4 C21          0.8900    -3.6470    82.5630 c3         1 SZO      -0.052800
      5 C24         -4.8200    -1.3630    84.5720 ca         1 SZO      -0.094000
      6 C26         -6.5580    -2.9660    85.1540 ca         1 SZO      -0.101000
      7 C28         -4.2150    -3.5280    85.5070 ca         1 SZO      -0.094000
      8 C1           4.7950    -6.1520    82.1220 c6         1 SZO      -0.075200
      9 C2           4.5880    -6.9340    83.4380 c6         1 SZO      -0.064400
     10 C3           3.3060    -6.4470    84.1440 c6         1 SZO      -0.183400
     11 C4           3.3630    -4.9410    84.4090 c          1 SZO       0.609300
     12 C5           3.8810    -4.0910    83.3050 ce         1 SZO      -0.494400
     13 C6           4.5530    -4.6570    82.2780 c2         1 SZO       0.287900
     14 O7           5.0640    -3.9460    81.2690 oh         1 SZO      -0.538100
     15 C9           3.6280    -2.6250    83.3490 c          1 SZO       0.636900
     16 C11          2.4930    -0.9870    84.8240 ca         1 SZO      -0.042000
     17 C12          1.3750    -0.4460    85.4600 ca         1 SZO      -0.109000
     18 C14         -0.0700    -2.0660    84.3720 ca         1 SZO      -0.193600
     19 C16         -1.4620    -2.6160    84.2390 c          1 SZO       0.580600
     20 N17         -0.9340    -0.3480    85.9770 nc         1 SZO      -0.628100
     21 N18         -2.4400    -1.9180    84.9300 n          1 SZO      -0.268500
     22 C19         -2.1490    -0.8570    85.7640 cd         1 SZO       0.512800
     23 O20         -1.7500    -3.6190    83.6000 o          1 SZO      -0.520000
     24 O22          4.3950    -1.8740    82.7580 o          1 SZO      -0.596100
     25 C23         -3.8300    -2.2690    85.0050 ca         1 SZO       0.023600
     26 C25         -6.1800    -1.7110    84.6470 ca         1 SZO      -0.104500
     27 C27         -5.5760    -3.8750    85.5830 ca         1 SZO      -0.104500
     28 H1           0.7220    -4.6450    82.9840 hc         1 SZO       0.055700
     29 H2           0.0480    -3.4020    81.9070 hc         1 SZO       0.055700
     30 H3           1.7480    -3.7060    81.8860 hc         1 SZO       0.055700
     31 H4          -4.5370    -0.3930    84.1700 ha         1 SZO       0.126000
     32 H5          -7.6110    -3.2350    85.2120 ha         1 SZO       0.116000
     33 H6          -3.4600    -4.2360    85.8420 ha         1 SZO       0.126000
     34 H7           4.1080    -6.5370    81.3560 hc         1 SZO       0.080200
     35 H8           5.8100    -6.3330    81.7420 hc         1 SZO       0.080200
     36 H9           4.5320    -8.0130    83.2350 hc         1 SZO       0.056200
     37 H10          5.4520    -6.7810    84.1010 hc         1 SZO       0.056200
     38 H11          3.0880    -6.9940    85.0710 hc         1 SZO       0.072200
     39 H12          2.4820    -6.6100    83.4360 hc         1 SZO       0.072200
     40 H13          4.9540    -3.0030    81.5540 ho         1 SZO       0.549000
     41 H14          3.4770    -0.5680    85.0270 ha         1 SZO       0.119000
     42 H15          1.5070     0.3930    86.1380 ha         1 SZO       0.136000
     43 H16         -2.9840    -0.4170    86.2970 h5         1 SZO       0.051800
     44 H17         -6.9400    -1.0090    84.3120 ha         1 SZO       0.118500
     45 H18         -5.8680    -4.8470    85.9730 ha         1 SZO       0.118500
     46 O8           3.0050    -4.4800    85.4810 o          1 SZO      -0.533100
@<TRIPOS>BOND
     1     1     3 ar  
     2     1    15 1   
     3     1    16 ar  
     4     2    17 ar  
     5     2    18 ar  
     6     2    20 1   
     7     3     4 1   
     8     3    18 ar  
     9     4    28 1   
    10     4    29 1   
    11     4    30 1   
    12     5    25 ar  
    13     5    26 ar  
    14     5    31 1   
    15     6    26 ar  
    16     6    27 ar  
    17     6    32 1   
    18     7    25 ar  
    19     7    27 ar  
    20     7    33 1   
    21     8     9 1   
    22     8    13 1   
    23     8    34 1   
    24     8    35 1   
    25     9    10 1   
    26     9    36 1   
    27     9    37 1   
    28    10    11 1   
    29    10    38 1   
    30    10    39 1   
    31    11    12 1   
    32    11    46 2   
    33    12    13 2   
    34    12    15 1   
    35    13    14 1   
    36    14    40 1   
    37    15    24 2   
    38    16    17 ar  
    39    16    41 1   
    40    17    42 1   
    41    18    19 1   
    42    19    21 1   
    43    19    23 2   
    44    20    22 2   
    45    21    22 1   
    46    21    25 1   
    47    22    43 1   
    48    26    44 1   
    49    27    45 1   
@<TRIPOS>SUBSTRUCTURE
     1 SZO         1 TEMP              0 ****  ****    0 ROOT
