@<TRIPOS>MOLECULE
SZP
   45    47     1     0     0
SMALL
No Charge or Current Charge


@<TRIPOS>ATOM
      1 N1          21.9220   -40.8200    10.0940 nu         1 SZP      -0.860100
      2 C4          25.8040   -36.6230     1.4930 ca         1 SZP      -0.179000
      3 C5          24.6330   -36.0170     1.9620 ca         1 SZP       0.198000
      4 C6          24.0730   -36.3960     3.1940 ca         1 SZP      -0.136000
      5 C7          22.1080   -37.3980     6.8670 ca         1 SZP      -0.018000
      6 C8          22.5330   -38.0840     8.0260 ca         1 SZP      -0.033000
      7 C10         20.3570   -37.7210     9.0700 ca         1 SZP      -0.052000
      8 C13         23.5530   -41.2900     8.3320 ca         1 SZP      -0.108000
      9 C15         21.2980   -42.1630     8.1880 ca         1 SZP      -0.108000
     10 C17         22.8750   -42.5780     6.3700 ca         1 SZP       0.085100
     11 C19         20.8070   -36.8490     6.8410 ca         1 SZP       0.102000
     12 N           22.9330   -37.2380     5.7150 ns         1 SZP      -0.146000
     13 C           24.1180   -37.8480     5.3250 c          1 SZP       0.623700
     14 C1          24.6870   -37.4010     3.9870 ca         1 SZP      -0.103600
     15 C3          26.4200   -37.6150     2.2640 ca         1 SZP       0.198000
     16 F           27.5510   -38.2040     1.8180 f          1 SZP      -0.163500
     17 C2          25.8730   -38.0020     3.4970 ca         1 SZP      -0.136000
     18 O           24.6800   -38.7070     5.9950 o          1 SZP      -0.548100
     19 C11         19.9410   -37.0080     7.9350 ca         1 SZP      -0.090000
     20 C9          21.6580   -38.2590     9.1210 ca         1 SZP      -0.274500
     21 S           22.1970   -39.2220    10.5460 sy         1 SZP       1.139600
     22 O2          23.6500   -39.1320    10.7070 o          1 SZP      -0.517000
     23 O3          21.2690   -39.0340    11.6630 o          1 SZP      -0.517000
     24 C12         22.2660   -41.4200     8.8840 ca         1 SZP       0.247000
     25 C16         21.6010   -42.7360     6.9390 ca         1 SZP      -0.084500
     26 C14         23.8600   -41.8550     7.0810 ca         1 SZP      -0.084500
     27 F2          24.6140   -41.7150     4.1190 f          1 SZP      -0.108333
     28 F3          24.2230   -43.6390     3.1880 f          1 SZP      -0.108333
     29 F4          25.3750   -43.5550     5.0270 f          1 SZP      -0.108333
     30 H1          20.9890   -41.0110    10.4340 hn         1 SZP       0.489000
     31 H2          26.2310   -36.3250     0.5400 ha         1 SZP       0.156000
     32 H3          23.1630   -35.8930     3.5110 ha         1 SZP       0.150500
     33 H4          23.5370   -38.4930     8.0900 ha         1 SZP       0.179000
     34 H5          19.6660   -37.8520     9.9020 ha         1 SZP       0.135000
     35 H6          24.3270   -40.7480     8.8650 ha         1 SZP       0.139000
     36 H7          20.3000   -42.2830     8.6020 ha         1 SZP       0.139000
     37 H8          22.5690   -36.5720     5.0480 hn         1 SZP       0.169000
     38 H9          26.3760   -38.7780     4.0700 ha         1 SZP       0.150500
     39 H10         18.9390   -36.5880     7.8970 ha         1 SZP       0.136000
     40 H11         20.8390   -43.2970     6.4020 ha         1 SZP       0.141500
     41 H12         24.8610   -41.7140     6.6850 ha         1 SZP       0.141500
     42 O1          23.0930   -43.1480     5.1280 os         1 SZP      -0.398100
     43 Cl          20.2330   -35.9670     5.4250 cl         1 SZP      -0.189000
     44 F1          24.0340   -35.0590     1.2220 f          1 SZP      -0.163500
     45 C18         24.3200   -43.0100     4.3800 c3         1 SZP       0.513000
@<TRIPOS>BOND
     1     1    21 1   
     2     1    24 1   
     3     1    30 1   
     4     2     3 ar  
     5     2    15 ar  
     6     2    31 1   
     7     3     4 ar  
     8     3    44 1   
     9     4    14 ar  
    10     4    32 1   
    11     5     6 ar  
    12     5    11 ar  
    13     5    12 1   
    14     6    20 ar  
    15     6    33 1   
    16     7    19 ar  
    17     7    20 ar  
    18     7    34 1   
    19     8    24 ar  
    20     8    26 ar  
    21     8    35 1   
    22     9    24 ar  
    23     9    25 ar  
    24     9    36 1   
    25    10    25 ar  
    26    10    26 ar  
    27    10    42 1   
    28    11    19 ar  
    29    11    43 1   
    30    12    13 1   
    31    12    37 1   
    32    13    14 1   
    33    13    18 2   
    34    14    17 ar  
    35    15    16 1   
    36    15    17 ar  
    37    17    38 1   
    38    19    39 1   
    39    20    21 1   
    40    21    22 2   
    41    21    23 2   
    42    25    40 1   
    43    26    41 1   
    44    27    45 1   
    45    28    45 1   
    46    29    45 1   
    47    42    45 1   
@<TRIPOS>SUBSTRUCTURE
     1 SZP         1 TEMP              0 ****  ****    0 ROOT
