@<TRIPOS>MOLECULE
SZP
   45    47     1     0     0
SMALL
abcg2


@<TRIPOS>ATOM
      1 N1          21.9760   -40.6760    10.2630 nu         1 SZP      -0.860100
      2 C4          25.9990   -36.1690     1.5780 ca         1 SZP      -0.179000
      3 C5          24.9040   -35.5560     2.1520 ca         1 SZP       0.198000
      4 C6          24.3540   -35.9790     3.3460 ca         1 SZP      -0.136000
      5 C7          22.2530   -37.7030     6.5330 ca         1 SZP      -0.018000
      6 C8          22.7360   -38.1980     7.7450 ca         1 SZP      -0.033000
      7 C10         20.5120   -38.0940     8.7160 ca         1 SZP      -0.052000
      8 C13         23.5710   -41.8180     8.8210 ca         1 SZP      -0.108000
      9 C15         21.2340   -41.8030     8.2420 ca         1 SZP      -0.108000
     10 C17         22.8130   -42.8880     6.8210 ca         1 SZP       0.085100
     11 C19         20.8810   -37.4250     6.4440 ca         1 SZP       0.102000
     12 N           23.0530   -37.4650     5.4230 ns         1 SZP      -0.146000
     13 C           24.4070   -37.5600     5.3050 c          1 SZP       0.623700
     14 C1          24.9340   -37.0650     3.9950 ca         1 SZP      -0.103600
     15 C3          26.5470   -37.2430     2.2550 ca         1 SZP       0.198000
     16 F           27.5980   -37.8620     1.7130 f          1 SZP      -0.163500
     17 C2          26.0510   -37.6990     3.4600 ca         1 SZP      -0.136000
     18 O           25.1460   -38.0070     6.1580 o          1 SZP      -0.548100
     19 C11         20.0250   -37.6160     7.5140 ca         1 SZP      -0.090000
     20 C9          21.8660   -38.3790     8.8060 ca         1 SZP      -0.274500
     21 S           22.4810   -39.0860    10.3120 sy         1 SZP       1.139600
     22 O2          23.9300   -39.0820    10.2540 o          1 SZP      -0.517000
     23 O3          21.7910   -38.4870    11.4380 o          1 SZP      -0.517000
     24 C12         22.2640   -41.4330     9.1010 ca         1 SZP       0.247000
     25 C16         21.5020   -42.5460     7.1040 ca         1 SZP      -0.084500
     26 C14         23.8490   -42.5350     7.6680 ca         1 SZP      -0.084500
     27 F2          22.1610   -42.3730     4.1330 f          1 SZP      -0.108333
     28 F3          23.6040   -43.8870     3.6190 f          1 SZP      -0.108333
     29 F4          24.2290   -42.0730     4.6060 f          1 SZP      -0.108333
     30 H1          21.0140   -40.7600    10.5820 hn         1 SZP       0.489000
     31 H2          26.4130   -35.8240     0.6390 ha         1 SZP       0.156000
     32 H3          23.5090   -35.4430     3.7600 ha         1 SZP       0.150500
     33 H4          23.7820   -38.4360     7.8510 ha         1 SZP       0.179000
     34 H5          19.8400   -38.2380     9.5500 ha         1 SZP       0.135000
     35 H6          24.3730   -41.5690     9.5000 ha         1 SZP       0.139000
     36 H7          20.2150   -41.5090     8.4600 ha         1 SZP       0.139000
     37 H8          22.5550   -37.1910     4.5890 hn         1 SZP       0.169000
     38 H9          26.5120   -38.5400     3.9600 ha         1 SZP       0.150500
     39 H10         18.9740   -37.3860     7.4070 ha         1 SZP       0.136000
     40 H11         20.6950   -42.8480     6.4500 ha         1 SZP       0.141500
     41 H12         24.8640   -42.8370     7.4480 ha         1 SZP       0.141500
     42 O1          23.0990   -43.6500     5.6950 os         1 SZP      -0.398100
     43 CL          20.2200   -36.8180     4.9670 cl         1 SZP      -0.189000
     44 F1          24.3550   -34.5120     1.5270 f          1 SZP      -0.163500
     45 C18         23.2690   -42.9970     4.5390 c3         1 SZP       0.513000
@<TRIPOS>BOND
     1     1    21 1   
     2     1    24 1   
     3     1    30 1   
     4     2     3 ar  
     5     2    15 ar  
     6     2    31 1   
     7     3     4 ar  
     8     3    44 1   
     9     4    14 ar  
    10     4    32 1   
    11     5     6 ar  
    12     5    11 ar  
    13     5    12 1   
    14     6    20 ar  
    15     6    33 1   
    16     7    19 ar  
    17     7    20 ar  
    18     7    34 1   
    19     8    24 ar  
    20     8    26 ar  
    21     8    35 1   
    22     9    24 ar  
    23     9    25 ar  
    24     9    36 1   
    25    10    25 ar  
    26    10    26 ar  
    27    10    42 1   
    28    11    19 ar  
    29    11    43 1   
    30    12    13 1   
    31    12    37 1   
    32    13    14 1   
    33    13    18 2   
    34    14    17 ar  
    35    15    16 1   
    36    15    17 ar  
    37    17    38 1   
    38    19    39 1   
    39    20    21 1   
    40    21    22 2   
    41    21    23 2   
    42    25    40 1   
    43    26    41 1   
    44    27    45 1   
    45    28    45 1   
    46    29    45 1   
    47    42    45 1   
@<TRIPOS>SUBSTRUCTURE
     1 SZP         1 TEMP              0 ****  ****    0 ROOT
