@<TRIPOS>MOLECULE
SZQ
   27    27     1     0     0
SMALL
No Charge or Current Charge


@<TRIPOS>ATOM
      1 C01        -10.9180    -5.7730   -17.0480 ca         1 SZQ      -0.081800
      2 C02        -10.6120    -6.1540   -15.7270 ca         1 SZQ      -0.074000
      3 C03         -9.5330    -7.0130   -15.4620 ca         1 SZQ      -0.189000
      4 C04         -8.7440    -7.5030   -16.5160 ca         1 SZQ       0.130100
      5 C05         -9.0360    -7.1310   -17.8500 ca         1 SZQ       0.106100
      6 C06        -10.1260    -6.2650   -18.1070 ca         1 SZQ      -0.144000
      7 C07        -12.0740    -4.8580   -17.2900 ce         1 SZQ      -0.065200
      8 C08        -12.5490    -4.3610   -18.4710 cf         1 SZQ      -0.285200
      9 C10        -13.7150    -3.4520   -18.5790 c          1 SZQ       0.594300
     10 C14         -8.4610    -7.3070   -20.2550 c3         1 SZQ       0.144900
     11 C15        -15.0660    -2.2380   -20.1590 c3         1 SZQ       0.152900
     12 O09         -7.6970    -8.3390   -16.2310 oh         1 SZQ      -0.509100
     13 O11        -14.3690    -3.0570   -17.6240 o          1 SZQ      -0.495000
     14 O12        -13.9610    -3.1180   -19.8830 os         1 SZQ      -0.441100
     15 O13         -8.2400    -7.6300   -18.8710 os         1 SZQ      -0.320100
     16 H1         -11.2120    -5.7850   -14.8980 ha         1 SZQ       0.120000
     17 H2          -9.3150    -7.2940   -14.4340 ha         1 SZQ       0.119000
     18 H3         -10.3600    -5.9730   -19.1240 ha         1 SZQ       0.122000
     19 H4         -12.5950    -4.5600   -16.3770 ha         1 SZQ       0.192000
     20 H5         -12.0710    -4.6230   -19.4110 ha         1 SZQ       0.196000
     21 H6          -7.7170    -7.8090   -20.8860 h1         1 SZQ       0.041367
     22 H7          -9.4570    -7.6350   -20.5780 h1         1 SZQ       0.041367
     23 H8          -8.3740    -6.2260   -20.4220 h1         1 SZQ       0.041367
     24 H9         -15.1480    -2.0540   -21.2370 h1         1 SZQ       0.047033
     25 H10        -16.0120    -2.6780   -19.8160 h1         1 SZQ       0.047033
     26 H11        -14.9300    -1.2700   -19.6580 h1         1 SZQ       0.047033
     27 H12         -7.6610    -8.4740   -15.2610 ho         1 SZQ       0.463000
@<TRIPOS>BOND
     1     1     2 ar  
     2     1     6 ar  
     3     1     7 1   
     4     2     3 ar  
     5     2    16 1   
     6     3     4 ar  
     7     3    17 1   
     8     4     5 ar  
     9     4    12 1   
    10     5     6 ar  
    11     5    15 1   
    12     6    18 1   
    13     7     8 2   
    14     7    19 1   
    15     8     9 1   
    16     8    20 1   
    17     9    13 2   
    18     9    14 1   
    19    10    15 1   
    20    10    21 1   
    21    10    22 1   
    22    10    23 1   
    23    11    14 1   
    24    11    24 1   
    25    11    25 1   
    26    11    26 1   
    27    12    27 1   
@<TRIPOS>SUBSTRUCTURE
     1 SZQ         1 TEMP              0 ****  ****    0 ROOT
