@<TRIPOS>MOLECULE
SZQ
   27    27     1     0     0
SMALL
bcc


@<TRIPOS>ATOM
      1 C01        -10.9680    -5.7790   -17.1040 ca         1 SZQ      -0.081800
      2 C02        -10.6630    -6.1310   -15.7950 ca         1 SZQ      -0.092000
      3 C03         -9.5720    -6.9430   -15.5140 ca         1 SZQ      -0.207000
      4 C04         -8.7700    -7.4230   -16.5350 ca         1 SZQ       0.130100
      5 C05         -9.0740    -7.0870   -17.8730 ca         1 SZQ       0.106100
      6 C06        -10.1580    -6.2750   -18.1400 ca         1 SZQ      -0.162000
      7 C07        -12.1050    -4.9080   -17.3450 ce         1 SZQ      -0.015200
      8 C08        -12.5090    -4.4030   -18.5190 cf         1 SZQ      -0.235200
      9 C10        -13.6800    -3.5210   -18.5890 c          1 SZQ       0.643300
     10 C14         -8.5110    -7.3340   -20.1590 c3         1 SZQ       0.121700
     11 C15        -14.9890    -2.2270   -20.0580 c3         1 SZQ       0.129700
     12 O09         -7.6970    -8.2030   -16.3370 oh         1 SZQ      -0.470100
     13 O11        -14.3890    -3.2110   -17.6590 o          1 SZQ      -0.544000
     14 O12        -13.8760    -3.0870   -19.8320 os         1 SZQ      -0.417900
     15 O13         -8.2480    -7.6060   -18.7980 os         1 SZQ      -0.296900
     16 H1         -11.2750    -5.7660   -14.9800 ha         1 SZQ       0.138000
     17 H2          -9.3440    -7.2040   -14.4870 ha         1 SZQ       0.137000
     18 H3         -10.3910    -6.0160   -19.1640 ha         1 SZQ       0.140000
     19 H4         -12.6700    -4.6390   -16.4570 ha         1 SZQ       0.142000
     20 H5         -11.9910    -4.6130   -19.4460 ha         1 SZQ       0.146000
     21 H6          -7.7430    -7.8490   -20.7310 h1         1 SZQ       0.041367
     22 H7          -9.4910    -7.7090   -20.4680 h1         1 SZQ       0.041367
     23 H8          -8.4580    -6.2650   -20.3810 h1         1 SZQ       0.041367
     24 H9         -14.9800    -1.9980   -21.1200 h1         1 SZQ       0.047033
     25 H10        -15.9300    -2.7130   -19.8030 h1         1 SZQ       0.047033
     26 H11        -14.9020    -1.3000   -19.4900 h1         1 SZQ       0.047033
     27 H12         -7.5720    -8.3690   -15.3950 ho         1 SZQ       0.424000
@<TRIPOS>BOND
     1     1     2 ar  
     2     1     6 ar  
     3     1     7 1   
     4     2     3 ar  
     5     2    16 1   
     6     3     4 ar  
     7     3    17 1   
     8     4     5 ar  
     9     4    12 1   
    10     5     6 ar  
    11     5    15 1   
    12     6    18 1   
    13     7     8 2   
    14     7    19 1   
    15     8     9 1   
    16     8    20 1   
    17     9    13 2   
    18     9    14 1   
    19    10    15 1   
    20    10    21 1   
    21    10    22 1   
    22    10    23 1   
    23    11    14 1   
    24    11    24 1   
    25    11    25 1   
    26    11    26 1   
    27    12    27 1   
@<TRIPOS>SUBSTRUCTURE
     1 SZQ         1 TEMP              0 ****  ****    0 ROOT
