@<TRIPOS>MOLECULE
SZR
   15    14     1     0     0
SMALL
No Charge or Current Charge


@<TRIPOS>ATOM
      1 CA         131.0830   117.0760   111.9740 c3         1 SZR       0.027300
      2 C54        130.5670   118.5450   112.0430 c3         1 SZR      -0.086400
      3 C55        130.9870   119.3410   113.3090 c3         1 SZR      -0.028300
      4 C56        130.3440   118.8950   114.5520 c1         1 SZR       0.324900
      5 C          131.1030   116.5240   110.4930 c          1 SZR       0.720000
      6 N57        129.8470   118.5090   115.5330 n1         1 SZR      -0.514000
      7 O2         130.3050   116.2370   112.8670 oh         1 SZR      -0.639000
      8 O          132.0830   115.8830   110.1300 o          1 SZR      -0.718500
      9 HA         132.1280   117.0820   112.3100 h1         1 SZR       0.010700
     10 H541       130.9730   119.0830   111.1770 hc         1 SZR       0.063200
     11 H542       129.4760   118.5660   111.9270 hc         1 SZR       0.063200
     12 H552       132.0750   119.2900   113.4340 hc         1 SZR       0.051700
     13 H551       130.7380   120.3990   113.1610 hc         1 SZR       0.051700
     14 H          130.4360   116.5710   113.7800 ho         1 SZR       0.394000
     15 OXT        130.1560   116.7660   109.7530 o          1 SZR      -0.718500
@<TRIPOS>BOND
     1     1     2 1   
     2     1     5 1   
     3     1     7 1   
     4     1     9 1   
     5     2     3 1   
     6     2    10 1   
     7     2    11 1   
     8     3     4 1   
     9     3    12 1   
    10     3    13 1   
    11     4     6 3   
    12     5     8 1   
    13     5    15 1   
    14     7    14 1   
@<TRIPOS>SUBSTRUCTURE
     1 SZR         1 TEMP              0 ****  ****    0 ROOT
