@<TRIPOS>MOLECULE
SZR
   15    14     1     0     0
SMALL
abcg2


@<TRIPOS>ATOM
      1 CA         131.0590   117.0780   111.9940 c3         1 SZR       0.027300
      2 C54        130.7320   118.5740   112.0120 c3         1 SZR      -0.086400
      3 C55        131.0610   119.2920   113.3320 c3         1 SZR      -0.028300
      4 C56        130.1960   118.9410   114.4510 c1         1 SZR       0.324900
      5 C          130.9560   116.5480   110.5400 c          1 SZR       0.720000
      6 N57        129.5150   118.6840   115.3440 n1         1 SZR      -0.514000
      7 O2         130.1950   116.3410   112.8670 oh         1 SZR      -0.639000
      8 O          131.8330   117.0030   109.7600 o          1 SZR      -0.718500
      9 HA         132.0980   116.9380   112.3080 h1         1 SZR       0.010700
     10 H541       131.3210   119.0580   111.2330 hc         1 SZR       0.063200
     11 H542       129.6760   118.7120   111.7670 hc         1 SZR       0.063200
     12 H552       132.0930   119.0850   113.6290 hc         1 SZR       0.051700
     13 H551       130.9780   120.3730   113.1940 hc         1 SZR       0.051700
     14 H          130.5520   116.3890   113.7610 ho         1 SZR       0.394000
     15 OXT        130.0360   115.7510   110.2530 o          1 SZR      -0.718500
@<TRIPOS>BOND
     1     1     2 1   
     2     1     5 1   
     3     1     7 1   
     4     1     9 1   
     5     2     3 1   
     6     2    10 1   
     7     2    11 1   
     8     3     4 1   
     9     3    12 1   
    10     3    13 1   
    11     4     6 3   
    12     5     8 1   
    13     5    15 1   
    14     7    14 1   
@<TRIPOS>SUBSTRUCTURE
     1 SZR         1 TEMP              0 ****  ****    0 ROOT
