@<TRIPOS>MOLECULE
SZS
   48    49     1     0     0
SMALL
No Charge or Current Charge


@<TRIPOS>ATOM
      1 C1          -8.3010   -27.1730    12.7790 c6         1 SZS       0.360300
      2 C2          -9.6890   -27.5310    12.1560 c6         1 SZS       0.150300
      3 C3          -9.5060   -27.8770    10.6380 c6         1 SZS       0.140300
      4 C4          -8.7620   -26.7180     9.9040 c6         1 SZS       0.122300
      5 C5          -7.4390   -26.3800    10.6720 c6         1 SZS       0.186300
      6 C6          -6.6540   -25.1860    10.0330 c3         1 SZS       0.171600
      7 O2         -10.3570   -28.5860    12.8930 oh         1 SZS      -0.718000
      8 O3         -10.7810   -28.1210     9.9870 os         1 SZS      -0.444100
      9 O5          -7.7180   -26.0700    12.0620 os         1 SZS      -0.454000
     10 O6          -5.4030   -24.9040    10.6960 oh         1 SZS      -0.715000
     11 O1          -8.4550   -26.8130    14.1640 os         1 SZS      -0.449000
     12 O4          -9.6410   -25.5790     9.7750 oh         1 SZS      -0.699000
     13 CAN        -11.4050   -29.3390    10.0820 c          1 SZS       0.613100
     14 OAQ        -10.7970   -30.3740    10.3120 o          1 SZS      -0.469000
     15 CAO        -12.6640   -29.3290     9.2510 c3         1 SZS      -0.204400
     16 CAP        -13.6850   -30.2340     9.8940 c          1 SZS       0.611100
     17 OAS        -14.0790   -30.0690    11.0410 o          1 SZS      -0.474000
     18 OAR        -14.4200   -30.8780     8.9360 os         1 SZS      -0.438100
     19 CAT        -15.5510   -31.6560     9.3640 c3         1 SZS       0.217900
     20 CAU        -16.1810   -32.2980     8.1360 ca         1 SZS      -0.102300
     21 CAV        -17.1890   -31.6230     7.4190 ca         1 SZS      -0.086500
     22 CAW        -17.7710   -32.2160     6.2840 ca         1 SZS      -0.116500
     23 CAX        -17.3470   -33.4870     5.8590 ca         1 SZS      -0.099000
     24 CAY        -16.3400   -34.1630     6.5680 ca         1 SZS      -0.116500
     25 CAZ        -15.7580   -33.5710     7.7030 ca         1 SZS      -0.086500
     26 H1          -7.6360   -28.0480    12.7090 h2         1 SZS       0.028700
     27 H2         -10.2990   -26.6160    12.2100 h1         1 SZS       0.082700
     28 H3          -8.8780   -28.7770    10.5510 h1         1 SZS       0.083700
     29 H4          -8.4860   -27.0800     8.9010 h1         1 SZS       0.051700
     30 H5          -6.7790   -27.2600    10.6380 h1         1 SZS       0.051700
     31 H61         -7.3000   -24.2980    10.0570 h1         1 SZS       0.038700
     32 H62         -6.4730   -25.4260     8.9760 h1         1 SZS       0.038700
     33 HO2        -10.2720   -28.3470    13.8470 ho         1 SZS       0.523000
     34 HO6         -5.0350   -24.0890    10.2800 ho         1 SZS       0.506000
     35 H10         -7.4680   -26.3480    15.9470 h1         1 SZS       0.038700
     36 H11         -6.6040   -27.4820    14.8860 h1         1 SZS       0.038700
     37 H12         -6.6730   -25.7500    14.4760 h1         1 SZS       0.038700
     38 HO4        -10.5170   -25.9460     9.5080 ho         1 SZS       0.513000
     39 H14        -12.4370   -29.6900     8.2430 hc         1 SZS       0.105200
     40 H15        -13.0620   -28.3110     9.2040 hc         1 SZS       0.105200
     41 H16        -16.2940   -31.0230     9.8680 h1         1 SZS       0.057200
     42 H17        -15.2410   -32.4390    10.0700 h1         1 SZS       0.057200
     43 H18        -17.5210   -30.6380     7.7400 ha         1 SZS       0.121500
     44 H19        -18.5490   -31.6910     5.7350 ha         1 SZS       0.113500
     45 H20        -17.7970   -33.9450     4.9810 ha         1 SZS       0.112000
     46 H21        -16.0100   -35.1460     6.2380 ha         1 SZS       0.113500
     47 H22        -14.9770   -34.1010     8.2450 ha         1 SZS       0.121500
     48 CAM         -7.2400   -26.5880    14.9010 c3         1 SZS       0.152900
@<TRIPOS>BOND
     1     1     2 1   
     2     1     9 1   
     3     1    11 1   
     4     1    26 1   
     5     2     3 1   
     6     2     7 1   
     7     2    27 1   
     8     3     4 1   
     9     3     8 1   
    10     3    28 1   
    11     4     5 1   
    12     4    12 1   
    13     4    29 1   
    14     5     6 1   
    15     5     9 1   
    16     5    30 1   
    17     6    10 1   
    18     6    31 1   
    19     6    32 1   
    20     7    33 1   
    21     8    13 1   
    22    10    34 1   
    23    11    48 1   
    24    12    38 1   
    25    13    14 2   
    26    13    15 1   
    27    15    16 1   
    28    15    39 1   
    29    15    40 1   
    30    16    17 2   
    31    16    18 1   
    32    18    19 1   
    33    19    20 1   
    34    19    41 1   
    35    19    42 1   
    36    20    21 ar  
    37    20    25 ar  
    38    21    22 ar  
    39    21    43 1   
    40    22    23 ar  
    41    22    44 1   
    42    23    24 ar  
    43    23    45 1   
    44    24    25 ar  
    45    24    46 1   
    46    25    47 1   
    47    35    48 1   
    48    36    48 1   
    49    37    48 1   
@<TRIPOS>SUBSTRUCTURE
     1 SZS         1 TEMP              0 ****  ****    0 ROOT
