@<TRIPOS>MOLECULE
SZS
   48    49     1     0     0
SMALL
bcc


@<TRIPOS>ATOM
      1 C1          -9.3040   -28.6870    11.8410 c6         1 SZS       0.313900
      2 C2         -10.6560   -28.4120    11.1760 c6         1 SZS       0.127100
      3 C3         -10.3860   -27.7480     9.8370 c6         1 SZS       0.117100
      4 C4          -9.5110   -26.5050     9.9960 c6         1 SZS       0.099100
      5 C5          -8.2420   -26.9100    10.7400 c6         1 SZS       0.163100
      6 C6          -7.3220   -25.7330    10.9870 c3         1 SZS       0.148400
      7 O2         -11.3600   -29.6010    10.9380 oh         1 SZS      -0.595800
      8 O3         -11.6540   -27.3870     9.2820 os         1 SZS      -0.420900
      9 O5          -8.5690   -27.5000    11.9810 os         1 SZS      -0.407600
     10 O6          -6.1040   -26.2190    11.4980 oh         1 SZS      -0.592800
     11 O1          -9.5440   -29.2110    13.0900 os         1 SZS      -0.402600
     12 O4         -10.1590   -25.4960    10.7260 oh         1 SZS      -0.576800
     13 CAN        -11.8510   -27.4610     7.9700 c          1 SZS       0.662100
     14 OAQ        -11.0040   -27.7360     7.1650 o          1 SZS      -0.518000
     15 CAO        -13.2840   -27.1170     7.6420 c3         1 SZS      -0.204400
     16 CAP        -14.2260   -27.7350     8.6480 c          1 SZS       0.660100
     17 OAS        -14.9470   -27.1220     9.3900 o          1 SZS      -0.523000
     18 OAR        -14.1410   -29.0550     8.6020 os         1 SZS      -0.414900
     19 CAT        -14.8670   -29.8140     9.5820 c3         1 SZS       0.194700
     20 CAU        -14.7270   -31.2610     9.2230 ca         1 SZS      -0.102300
     21 CAV        -15.8520   -32.0200     8.9170 ca         1 SZS      -0.104500
     22 CAW        -15.7300   -33.3650     8.5890 ca         1 SZS      -0.134500
     23 CAX        -14.4780   -33.9600     8.5590 ca         1 SZS      -0.117000
     24 CAY        -13.3490   -33.2070     8.8610 ca         1 SZS      -0.134500
     25 CAZ        -13.4720   -31.8670     9.1950 ca         1 SZS      -0.104500
     26 H1          -8.7350   -29.4040    11.2150 h2         1 SZS       0.028700
     27 H2         -11.2220   -27.7240    11.8190 h1         1 SZS       0.082700
     28 H3          -9.8760   -28.4570     9.1770 h1         1 SZS       0.083700
     29 H4          -9.2190   -26.1550     8.9960 h1         1 SZS       0.051700
     30 H5          -7.7100   -27.6340    10.1020 h1         1 SZS       0.051700
     31 H61         -7.8000   -25.0270    11.6750 h1         1 SZS       0.038700
     32 H62         -7.1830   -25.2110    10.0320 h1         1 SZS       0.038700
     33 HO2        -11.6280   -29.9720    11.7840 ho         1 SZS       0.424000
     34 HO6         -5.5320   -25.4650    11.6660 ho         1 SZS       0.407000
     35 H10         -8.7940   -30.3820    14.5650 h1         1 SZS       0.038700
     36 H11         -7.9110   -30.5000    13.0330 h1         1 SZS       0.038700
     37 H12         -7.7060   -29.0750    14.0710 h1         1 SZS       0.038700
     38 HO4        -10.9050   -25.1680    10.2140 ho         1 SZS       0.414000
     39 H14        -13.5130   -27.4690     6.6360 hc         1 SZS       0.105200
     40 H15        -13.3980   -26.0320     7.6540 hc         1 SZS       0.105200
     41 H16        -15.9160   -29.5170     9.5920 h1         1 SZS       0.057200
     42 H17        -14.4450   -29.6080    10.5690 h1         1 SZS       0.057200
     43 H18        -16.8320   -31.5580     8.9340 ha         1 SZS       0.139500
     44 H19        -16.6140   -33.9430     8.3550 ha         1 SZS       0.131500
     45 H20        -14.3790   -35.0070     8.3030 ha         1 SZS       0.130000
     46 H21        -12.3690   -33.6680     8.8410 ha         1 SZS       0.131500
     47 H22        -12.5880   -31.2910     9.4410 ha         1 SZS       0.139500
     48 CAM         -8.4250   -29.8140    13.7130 c3         1 SZS       0.129700
@<TRIPOS>BOND
     1     1     2 1   
     2     1     9 1   
     3     1    11 1   
     4     1    26 1   
     5     2     3 1   
     6     2     7 1   
     7     2    27 1   
     8     3     4 1   
     9     3     8 1   
    10     3    28 1   
    11     4     5 1   
    12     4    12 1   
    13     4    29 1   
    14     5     6 1   
    15     5     9 1   
    16     5    30 1   
    17     6    10 1   
    18     6    31 1   
    19     6    32 1   
    20     7    33 1   
    21     8    13 1   
    22    10    34 1   
    23    11    48 1   
    24    12    38 1   
    25    13    14 2   
    26    13    15 1   
    27    15    16 1   
    28    15    39 1   
    29    15    40 1   
    30    16    17 2   
    31    16    18 1   
    32    18    19 1   
    33    19    20 1   
    34    19    41 1   
    35    19    42 1   
    36    20    21 ar  
    37    20    25 ar  
    38    21    22 ar  
    39    21    43 1   
    40    22    23 ar  
    41    22    44 1   
    42    23    24 ar  
    43    23    45 1   
    44    24    25 ar  
    45    24    46 1   
    46    25    47 1   
    47    35    48 1   
    48    36    48 1   
    49    37    48 1   
@<TRIPOS>SUBSTRUCTURE
     1 SZS         1 TEMP              0 ****  ****    0 ROOT
