@<TRIPOS>MOLECULE
SZU
   51    54     1     0     0
SMALL
No Charge or Current Charge


@<TRIPOS>ATOM
      1 N1         120.4470   112.7950   126.2440 ns         1 SZU      -0.470900
      2 N3         114.9920   111.6570   123.1310 n7         1 SZU      -0.876400
      3 C4         123.0090   109.9980   124.2110 ca         1 SZU       0.328900
      4 C5         124.1690   110.5660   123.6570 ca         1 SZU      -0.142000
      5 C6         124.6010   111.8270   124.1070 ca         1 SZU      -0.106000
      6 C7         123.8450   112.4710   125.0990 ca         1 SZU       0.115000
      7 C8         118.6480   113.8590   125.0680 cc         1 SZU       0.170500
      8 C10        116.5630   113.5130   124.9590 cd         1 SZU       0.468300
      9 C13        114.3300   111.3180   121.8530 c3         1 SZU       0.168800
     10 C15        114.0070   112.0220   119.4530 cc         1 SZU       0.417800
     11 C17        114.1580   110.5070   116.2010 ca         1 SZU      -0.117000
     12 C20        111.6630   111.7190   116.8250 ca         1 SZU      -0.049000
     13 C21        112.7280   111.7310   117.7390 ca         1 SZU       0.069400
     14 C1         120.1100   113.8070   125.3710 c          1 SZU       0.544600
     15 C11        115.1750   112.9940   125.2110 c3         1 SZU      -0.100700
     16 C12        114.3730   112.7410   123.9220 c3         1 SZU       0.160800
     17 C14        114.5460   112.4170   120.7960 c3         1 SZU      -0.100700
     18 C16        113.9200   111.1450   117.4240 ca         1 SZU      -0.076200
     19 C18        113.1020   110.4820   115.2660 ca         1 SZU      -0.094000
     20 C19        111.8590   111.0860   115.5770 ca         1 SZU      -0.135000
     21 C2         121.8180   112.4860   126.6890 c3         1 SZU       0.061700
     22 C3         122.6830   111.8350   125.6050 ca         1 SZU       0.298300
     23 C9         118.0970   114.7850   124.2300 cd         1 SZU       0.182900
     24 N2         122.2740   110.6110   125.1700 nb         1 SZU      -0.647000
     25 N4         114.7370   111.3210   118.4970 na         1 SZU      -0.324600
     26 N5         112.7610   112.2910   119.0140 nd         1 SZU      -0.577100
     27 N6         117.6520   113.0390   125.5550 nc         1 SZU      -0.676000
     28 O1         120.9480   114.5720   124.9080 o          1 SZU      -0.610100
     29 O2         116.7510   114.6000   124.1470 os         1 SZU      -0.276000
     30 H1         119.6800   112.2050   126.5540 hn         1 SZU       0.342500
     31 H2         114.9910   110.8090   123.7150 hn         1 SZU       0.418000
     32 H4         122.6560   109.0220   123.8800 h4         1 SZU       0.023100
     33 H5         124.7230   110.0300   122.8900 ha         1 SZU       0.128000
     34 H6         125.4960   112.2920   123.7010 ha         1 SZU       0.138000
     35 H7         113.2540   111.1520   122.0000 h1         1 SZU       0.036700
     36 H8         114.7540   110.3820   121.4620 h1         1 SZU       0.036700
     37 H9         115.1180   110.0480   115.9790 ha         1 SZU       0.116000
     38 H10        110.7130   112.1860   117.0740 ha         1 SZU       0.128000
     39 H11        114.6310   113.7240   125.8210 hc         1 SZU       0.073200
     40 H12        115.2170   112.0710   125.8000 hc         1 SZU       0.073200
     41 H13        114.3270   113.6770   123.3480 h1         1 SZU       0.044200
     42 H14        113.3420   112.4720   124.1950 h1         1 SZU       0.044200
     43 H15        115.6170   112.6330   120.7100 hc         1 SZU       0.075700
     44 H16        114.0610   113.3440   121.1170 hc         1 SZU       0.075700
     45 H17        113.2430   109.9970   114.3020 ha         1 SZU       0.112000
     46 H18        111.0490   111.0630   114.8510 ha         1 SZU       0.114000
     47 H19        121.7600   111.8040   127.5470 h1         1 SZU       0.075700
     48 H20        122.2890   113.4110   127.0440 h1         1 SZU       0.075700
     49 H21        118.5410   115.5920   123.6620 h4         1 SZU       0.079100
     50 H22        115.6940   111.0070   118.5930 hn         1 SZU       0.355000
     51 F1         124.2420   113.6820   125.5570 f          1 SZU      -0.175000
@<TRIPOS>BOND
     1     1    14 1   
     2     1    21 1   
     3     1    30 1   
     4     2     9 1   
     5     2    16 1   
     6     2    31 1   
     7     3     4 ar  
     8     3    24 ar  
     9     3    32 1   
    10     4     5 ar  
    11     4    33 1   
    12     5     6 ar  
    13     5    34 1   
    14     6    22 ar  
    15     6    51 1   
    16     7    14 1   
    17     7    23 2   
    18     7    27 1   
    19     8    15 1   
    20     8    27 2   
    21     8    29 1   
    22     9    17 1   
    23     9    35 1   
    24     9    36 1   
    25    10    17 1   
    26    10    25 1   
    27    10    26 2   
    28    11    18 ar  
    29    11    19 ar  
    30    11    37 1   
    31    12    13 ar  
    32    12    20 ar  
    33    12    38 1   
    34    13    18 ar  
    35    13    26 1   
    36    14    28 2   
    37    15    16 1   
    38    15    39 1   
    39    15    40 1   
    40    16    41 1   
    41    16    42 1   
    42    17    43 1   
    43    17    44 1   
    44    18    25 1   
    45    19    20 ar  
    46    19    45 1   
    47    20    46 1   
    48    21    22 1   
    49    21    47 1   
    50    21    48 1   
    51    22    24 ar  
    52    23    29 1   
    53    23    49 1   
    54    25    50 1   
@<TRIPOS>SUBSTRUCTURE
     1 SZU         1 TEMP              0 ****  ****    0 ROOT
