@<TRIPOS>MOLECULE
SZU
   51    54     1     0     0
SMALL
abcg2


@<TRIPOS>ATOM
      1 N1         120.2070   113.0380   125.9480 ns         1 SZU      -0.470900
      2 N3         115.0650   111.5560   123.5680 n7         1 SZU      -0.876400
      3 C4         121.8080   110.8610   122.8530 ca         1 SZU       0.328900
      4 C5         123.1650   110.6420   122.6600 ca         1 SZU      -0.142000
      5 C6         124.0560   111.1260   123.6120 ca         1 SZU      -0.106000
      6 C7         123.5220   111.7950   124.6910 ca         1 SZU       0.115000
      7 C8         118.2940   114.1780   125.1200 cc         1 SZU       0.170500
      8 C10        116.2370   113.6200   125.3140 cd         1 SZU       0.468300
      9 C13        114.5930   111.2190   122.2280 c3         1 SZU       0.168800
     10 C15        114.6150   111.9350   119.8170 cc         1 SZU       0.417800
     11 C17        114.6770   110.0460   116.7570 ca         1 SZU      -0.117000
     12 C20        112.7230   112.1250   116.8440 ca         1 SZU      -0.049000
     13 C21        113.5630   111.8940   117.9340 ca         1 SZU       0.069400
     14 C1         119.7620   114.1000   125.2480 c          1 SZU       0.544600
     15 C11        114.9200   112.9870   125.5630 c3         1 SZU      -0.100700
     16 C12        114.2440   112.5420   124.2620 c3         1 SZU       0.160800
     17 C14        115.0680   112.2560   121.1970 c3         1 SZU      -0.100700
     18 C16        114.5240   110.8610   117.8740 ca         1 SZU      -0.076200
     19 C18        113.8310   110.2920   115.6820 ca         1 SZU      -0.094000
     20 C19        112.8680   111.3150   115.7250 ca         1 SZU      -0.135000
     21 C2         121.6080   112.7180   126.0430 c3         1 SZU       0.061700
     22 C3         122.1510   111.9860   124.8310 ca         1 SZU       0.298300
     23 C9         117.5700   115.1130   124.4610 cd         1 SZU       0.182900
     24 N2         121.3140   111.5150   123.9090 nb         1 SZU      -0.647000
     25 N4         115.1720   110.9170   119.0900 na         1 SZU      -0.324600
     26 N5         113.6480   112.5420   119.1600 nd         1 SZU      -0.577100
     27 N6         117.4210   113.2330   125.6580 nc         1 SZU      -0.676000
     28 O1         120.5020   114.9510   124.7500 o          1 SZU      -0.610100
     29 O2         116.2560   114.7730   124.5780 os         1 SZU      -0.276000
     30 H1         119.5250   112.3460   126.2230 hn         1 SZU       0.342500
     31 H2         115.1140   110.7120   124.1280 hn         1 SZU       0.418000
     32 H4         121.0850   110.4990   122.1310 h4         1 SZU       0.023100
     33 H5         123.5190   110.1090   121.7890 ha         1 SZU       0.128000
     34 H6         125.1260   110.9930   123.5240 ha         1 SZU       0.138000
     35 H7         113.4970   111.1380   122.1780 h1         1 SZU       0.036700
     36 H8         115.0010   110.2410   121.9640 h1         1 SZU       0.036700
     37 H9         115.4190   109.2600   116.7250 ha         1 SZU       0.116000
     38 H10        111.9810   112.9130   116.8740 ha         1 SZU       0.128000
     39 H11        114.2670   113.6920   126.0840 hc         1 SZU       0.073200
     40 H12        115.0800   112.1320   126.2200 hc         1 SZU       0.073200
     41 H13        114.1140   113.4090   123.6140 h1         1 SZU       0.044200
     42 H14        113.2390   112.1640   124.4980 h1         1 SZU       0.044200
     43 H15        116.1590   112.2990   121.2290 hc         1 SZU       0.075700
     44 H16        114.6860   113.2440   121.4520 hc         1 SZU       0.075700
     45 H17        113.9150   109.6810   114.7920 ha         1 SZU       0.112000
     46 H18        112.2290   111.4720   114.8660 ha         1 SZU       0.114000
     47 H19        121.7630   112.1050   126.9330 h1         1 SZU       0.075700
     48 H20        122.1740   113.6390   126.1870 h1         1 SZU       0.075700
     49 H21        117.8080   116.0010   123.9050 h4         1 SZU       0.079100
     50 H22        115.9310   110.3260   119.3930 hn         1 SZU       0.355000
     51 F1         124.3460   112.2870   125.6470 f          1 SZU      -0.175000
@<TRIPOS>BOND
     1     1    14 1   
     2     1    21 1   
     3     1    30 1   
     4     2     9 1   
     5     2    16 1   
     6     2    31 1   
     7     3     4 ar  
     8     3    24 ar  
     9     3    32 1   
    10     4     5 ar  
    11     4    33 1   
    12     5     6 ar  
    13     5    34 1   
    14     6    22 ar  
    15     6    51 1   
    16     7    14 1   
    17     7    23 2   
    18     7    27 1   
    19     8    15 1   
    20     8    27 2   
    21     8    29 1   
    22     9    17 1   
    23     9    35 1   
    24     9    36 1   
    25    10    17 1   
    26    10    25 1   
    27    10    26 2   
    28    11    18 ar  
    29    11    19 ar  
    30    11    37 1   
    31    12    13 ar  
    32    12    20 ar  
    33    12    38 1   
    34    13    18 ar  
    35    13    26 1   
    36    14    28 2   
    37    15    16 1   
    38    15    39 1   
    39    15    40 1   
    40    16    41 1   
    41    16    42 1   
    42    17    43 1   
    43    17    44 1   
    44    18    25 1   
    45    19    20 ar  
    46    19    45 1   
    47    20    46 1   
    48    21    22 1   
    49    21    47 1   
    50    21    48 1   
    51    22    24 ar  
    52    23    29 1   
    53    23    49 1   
    54    25    50 1   
@<TRIPOS>SUBSTRUCTURE
     1 SZU         1 TEMP              0 ****  ****    0 ROOT
