@<TRIPOS>MOLECULE
SZV
   41    44     1     0     0
SMALL
abcg2


@<TRIPOS>ATOM
      1 C10         10.4920    -3.9390  -101.5630 cc         1 SZV       0.049400
      2 C13         11.6630    -1.6860  -104.3250 ca         1 SZV      -0.180000
      3 C15          9.7960    -0.6240  -103.2400 ca         1 SZV      -0.160000
      4 C20         10.5400    -7.3890  -100.8400 cd         1 SZV       0.373900
      5 C22         10.4870    -7.2060   -98.5630 cc         1 SZV       0.239900
      6 C26          8.5090    -1.1880   -96.6490 ca         1 SZV      -0.046600
      7 C04          7.3020    -1.9030   -96.6830 ca         1 SZV      -0.117600
      8 C05          7.1810    -2.9320   -97.6120 ca         1 SZV      -0.085000
      9 C06          8.2070    -3.2890   -98.4750 ca         1 SZV      -0.238000
     10 C07          9.4090    -2.5860   -98.4260 ca         1 SZV       0.216000
     11 C09         10.4530    -3.9260  -100.1750 cd         1 SZV       0.113900
     12 C11         10.5610    -2.7820  -102.4620 ca         1 SZV      -0.102800
     13 C12         11.5390    -2.7580  -103.4590 ca         1 SZV      -0.050000
     14 C14         10.7890    -0.6120  -104.2030 ca         1 SZV      -0.082000
     15 C16          9.6670    -1.7070  -102.3720 ca         1 SZV       0.181100
     16 C19         10.5280    -5.9850  -100.9720 cd         1 SZV      -0.165000
     17 C23         10.4660    -5.8500   -98.5880 cd         1 SZV      -0.093000
     18 C25          9.5420    -1.5440   -97.5080 ca         1 SZV      -0.161000
     19 N08         10.4840    -2.9100   -99.2490 nu         1 SZV      -0.853000
     20 N18         10.5540    -5.2060  -102.0350 nc         1 SZV      -0.272600
     21 N21         10.5190    -7.9800   -99.6810 nc         1 SZV      -0.672000
     22 N24         10.4790    -5.2450   -99.8100 na         1 SZV       0.130100
     23 O01          6.4610    -1.1760   -94.6000 o          1 SZV      -0.727000
     24 O03          5.0200    -2.0030   -96.0860 o          1 SZV      -0.727000
     25 O17          8.6540    -1.6540  -101.4860 oh         1 SZV      -0.513100
     26 O28          9.6290    -0.0810   -94.8930 o          1 SZV      -0.731500
     27 O29          8.1160     1.0560   -96.0840 o          1 SZV      -0.731500
     28 H1          12.4350    -1.6850  -105.0820 ha         1 SZV       0.097000
     29 H2           9.0990     0.2020  -103.1590 ha         1 SZV       0.129000
     30 H3          10.5730    -7.9980  -101.7370 h4         1 SZV       0.025100
     31 H4          10.4800    -7.7200   -97.6110 h4         1 SZV       0.027100
     32 H5           6.2540    -3.4890   -97.6590 ha         1 SZV       0.108000
     33 H6           8.0570    -4.1050   -99.1730 ha         1 SZV       0.065000
     34 H7          12.2200    -3.5960  -103.5360 ha         1 SZV       0.113000
     35 H8          10.8740     0.2370  -104.8680 ha         1 SZV       0.097000
     36 H9          10.4440    -5.2260   -97.7070 h4         1 SZV       0.189000
     37 H10         10.4780    -0.9950   -97.4780 ha         1 SZV       0.094000
     38 H11         11.2180    -2.2250   -99.3460 hn         1 SZV       0.498000
     39 H13          8.5080    -2.5080  -101.0620 ho         1 SZV       0.495000
     40 C02          6.1600    -1.6600   -95.7080 c          1 SZV       0.719600
     41 C27          8.7540     0.0340   -95.7720 c          1 SZV       0.749600
@<TRIPOS>BOND
     1     1    11 2   
     2     1    12 1   
     3     1    20 1   
     4     2    13 ar  
     5     2    14 ar  
     6     2    28 1   
     7     3    14 ar  
     8     3    15 ar  
     9     3    29 1   
    10     4    16 1   
    11     4    21 2   
    12     4    30 1   
    13     5    17 2   
    14     5    21 1   
    15     5    31 1   
    16     6     7 ar  
    17     6    18 ar  
    18     6    41 1   
    19     7     8 ar  
    20     7    40 1   
    21     8     9 ar  
    22     8    32 1   
    23     9    10 ar  
    24     9    33 1   
    25    10    18 ar  
    26    10    19 1   
    27    11    19 1   
    28    11    22 1   
    29    12    13 ar  
    30    12    15 ar  
    31    13    34 1   
    32    14    35 1   
    33    15    25 1   
    34    16    20 2   
    35    16    22 1   
    36    17    22 1   
    37    17    36 1   
    38    18    37 1   
    39    19    38 1   
    40    23    40 1   
    41    24    40 1   
    42    25    39 1   
    43    26    41 1   
    44    27    41 1   
@<TRIPOS>SUBSTRUCTURE
     1 SZV         1 TEMP              0 ****  ****    0 ROOT
