@<TRIPOS>MOLECULE
SZV
   41    44     1     0     0
SMALL
No Charge or Current Charge


@<TRIPOS>ATOM
      1 C10         10.5810    -3.9760  -101.6750 cc         1 SZV       0.049400
      2 C13         11.8490    -1.7320  -104.4400 ca         1 SZV      -0.180000
      3 C15          9.9050    -0.6730  -103.4510 ca         1 SZV      -0.160000
      4 C20         10.7600    -7.4100  -100.8290 cd         1 SZV       0.373900
      5 C22         10.3350    -7.0910   -98.5600 cc         1 SZV       0.239900
      6 C26          8.4660    -1.2000   -96.5560 ca         1 SZV      -0.046600
      7 C04          7.2780    -1.9690   -96.4470 ca         1 SZV      -0.117600
      8 C05          7.0270    -2.9930   -97.3850 ca         1 SZV      -0.085000
      9 C06          7.9500    -3.2670   -98.4070 ca         1 SZV      -0.238000
     10 C07          9.1370    -2.5280   -98.5010 ca         1 SZV       0.216000
     11 C09         10.2500    -3.8910  -100.3330 cd         1 SZV       0.113900
     12 C11         10.7190    -2.7990  -102.5470 ca         1 SZV      -0.102800
     13 C12         11.7320    -2.7970  -103.5300 ca         1 SZV      -0.050000
     14 C14         10.9380    -0.6670  -104.4010 ca         1 SZV      -0.082000
     15 C16          9.7890    -1.7290  -102.5320 ca         1 SZV       0.181100
     16 C19         10.6010    -6.0080  -101.0110 cd         1 SZV      -0.165000
     17 C23         10.1890    -5.7090   -98.6730 cd         1 SZV      -0.093000
     18 C25          9.3860    -1.4950   -97.5880 ca         1 SZV      -0.161000
     19 N08         10.0550    -2.7850   -99.5180 nu         1 SZV      -0.853000
     20 N18         10.8050    -5.2720  -102.0950 nc         1 SZV      -0.272600
     21 N21         10.5990    -7.9600   -99.6230 nc         1 SZV      -0.672000
     22 N24         10.2080    -5.2240   -99.9740 na         1 SZV       0.130100
     23 O01          6.6900    -1.7890   -94.1790 o          1 SZV      -0.727000
     24 O03          5.1080    -1.5940   -95.6280 o          1 SZV      -0.727000
     25 O17          8.7590    -1.7020  -101.6400 oh         1 SZV      -0.513100
     26 O28          9.8390    -0.0250   -95.0430 o          1 SZV      -0.731500
     27 O29          7.9410     0.8630   -95.5430 o          1 SZV      -0.731500
     28 H1          12.6430    -1.7400  -105.1830 ha         1 SZV       0.097000
     29 H2           9.1880     0.1440  -103.4270 ha         1 SZV       0.129000
     30 H3          11.0370    -8.0920  -101.6240 h4         1 SZV       0.025100
     31 H4          10.2720    -7.5830   -97.5990 h4         1 SZV       0.027100
     32 H5           6.1160    -3.5830   -97.3120 ha         1 SZV       0.108000
     33 H6           7.7320    -4.0550   -99.1220 ha         1 SZV       0.065000
     34 H7          12.4390    -3.6220  -103.5850 ha         1 SZV       0.113000
     35 H8          11.0250     0.1540  -105.1090 ha         1 SZV       0.097000
     36 H9          10.0220    -5.0240   -97.8550 h4         1 SZV       0.189000
     37 H10         10.2950    -0.9070   -97.6740 ha         1 SZV       0.094000
     38 H11         10.8310    -2.1130   -99.5550 hn         1 SZV       0.498000
     39 H13          9.0630    -2.2210  -100.8450 ho         1 SZV       0.495000
     40 C02          6.2880    -1.7250   -95.3330 c          1 SZV       0.719600
     41 C27          8.7530    -0.0510   -95.6090 c          1 SZV       0.749600
@<TRIPOS>BOND
     1     1    11 2   
     2     1    12 1   
     3     1    20 1   
     4     2    13 ar  
     5     2    14 ar  
     6     2    28 1   
     7     3    14 ar  
     8     3    15 ar  
     9     3    29 1   
    10     4    16 1   
    11     4    21 2   
    12     4    30 1   
    13     5    17 2   
    14     5    21 1   
    15     5    31 1   
    16     6     7 ar  
    17     6    18 ar  
    18     6    41 1   
    19     7     8 ar  
    20     7    40 1   
    21     8     9 ar  
    22     8    32 1   
    23     9    10 ar  
    24     9    33 1   
    25    10    18 ar  
    26    10    19 1   
    27    11    19 1   
    28    11    22 1   
    29    12    13 ar  
    30    12    15 ar  
    31    13    34 1   
    32    14    35 1   
    33    15    25 1   
    34    16    20 2   
    35    16    22 1   
    36    17    22 1   
    37    17    36 1   
    38    18    37 1   
    39    19    38 1   
    40    23    40 1   
    41    24    40 1   
    42    25    39 1   
    43    26    41 1   
    44    27    41 1   
@<TRIPOS>SUBSTRUCTURE
     1 SZV         1 TEMP              0 ****  ****    0 ROOT
