@<TRIPOS>MOLECULE
SZW
   47    50     1     0     0
SMALL
No Charge or Current Charge


@<TRIPOS>ATOM
      1 N           -8.6930     2.6000    31.3680 nh         1 SZW      -0.773300
      2 C           -6.6400     7.9720    31.6480 ca         1 SZW       0.143000
      3 C1          -6.2390     6.7070    31.1530 ca         1 SZW      -0.126000
      4 C10         -6.7800     1.2040    34.4320 c6         1 SZW      -0.077400
      5 C11         -5.5300     0.6840    33.6800 c6         1 SZW       0.161800
      6 C13         -2.6010     1.2240    32.7290 c3         1 SZW      -0.017300
      7 C14         -2.3090     2.5540    33.2750 c1         1 SZW       0.311900
      8 C15         -6.2690     1.7860    31.6090 c6         1 SZW       0.150800
      9 C16         -9.0070     1.5570    30.3590 c3         1 SZW       0.220100
     10 C17        -11.8700     3.7360    32.5600 ca         1 SZW       0.191900
     11 C18        -10.5690     5.5980    32.5760 ca         1 SZW       0.189500
     12 C2          -7.1090     5.5950    31.2280 ca         1 SZW      -0.072000
     13 C3          -7.9190     8.1510    32.2130 ca         1 SZW      -0.133000
     14 C4          -8.7510     7.0290    32.2780 ca         1 SZW      -0.016200
     15 C5          -8.3740     5.7710    31.8250 cp         1 SZW      -0.046000
     16 C6          -9.5050     4.8670    32.0380 cp         1 SZW      -0.234000
     17 C7          -9.7000     3.4880    31.7990 ca         1 SZW       0.441900
     18 C8          -7.5490     2.3580    32.3040 c6         1 SZW       0.229500
     19 C9          -7.9710     1.4260    33.4680 c6         1 SZW      -0.094400
     20 N1          -5.1350     1.5980    32.5670 n3         1 SZW      -0.720600
     21 N2          -2.0410     3.6020    33.7100 n1         1 SZW      -0.465000
     22 N3         -10.9030     2.9300    32.0600 nb         1 SZW      -0.308000
     23 N4         -11.7640     5.0530    32.8460 nb         1 SZW      -0.244000
     24 N5         -10.0690     6.8970    32.7290 na         1 SZW      -0.322300
     25 H1          -5.2560     6.5940    30.7030 ha         1 SZW       0.146000
     26 H2          -7.0630     0.4910    35.2180 hc         1 SZW       0.055200
     27 H3          -6.5330     2.1460    34.9390 hc         1 SZW       0.055200
     28 H4          -5.7390    -0.3230    33.2880 h1         1 SZW       0.033700
     29 H5          -4.7160     0.5830    34.4110 h1         1 SZW       0.033700
     30 H6          -3.7190     1.8530    31.0090 h1         1 SZW       0.042700
     31 H7          -4.0020     0.1760    31.4660 h1         1 SZW       0.042700
     32 H8          -2.6660     0.5030    33.5510 hc         1 SZW       0.071200
     33 H9          -1.7530     0.9140    32.1090 hc         1 SZW       0.071200
     34 H10         -5.9710     2.4740    30.8050 h1         1 SZW       0.042200
     35 H11         -6.5100     0.8240    31.1350 h1         1 SZW       0.042200
     36 H12         -8.1850     1.4540    29.6390 h1         1 SZW       0.043033
     37 H13         -9.1830     0.5860    30.8400 h1         1 SZW       0.043033
     38 H14         -9.9050     1.8260    29.7870 h1         1 SZW       0.043033
     39 H15        -12.8320     3.2700    32.7670 h5         1 SZW       0.045100
     40 H16         -6.8110     4.6360    30.8180 ha         1 SZW       0.136000
     41 H17         -8.2450     9.1220    32.5740 ha         1 SZW       0.132000
     42 H18         -7.2500     3.3160    32.7540 h1         1 SZW       0.087700
     43 H19         -8.8150     1.8620    34.0190 hc         1 SZW       0.051200
     44 H20         -8.3130     0.4590    33.0750 hc         1 SZW       0.051200
     45 H22        -10.6150     7.6570    33.1170 hn         1 SZW       0.368000
     46 Cl          -5.5410     9.3400    31.5330 cl         1 SZW      -0.202000
     47 C12         -3.8850     1.1910    31.8710 c3         1 SZW       0.174800
@<TRIPOS>BOND
     1     1     9 1   
     2     1    17 1   
     3     1    18 1   
     4     2     3 ar  
     5     2    13 ar  
     6     2    46 1   
     7     3    12 ar  
     8     3    25 1   
     9     4     5 1   
    10     4    19 1   
    11     4    26 1   
    12     4    27 1   
    13     5    20 1   
    14     5    28 1   
    15     5    29 1   
    16     6     7 1   
    17     6    32 1   
    18     6    33 1   
    19     6    47 1   
    20     7    21 3   
    21     8    18 1   
    22     8    20 1   
    23     8    34 1   
    24     8    35 1   
    25     9    36 1   
    26     9    37 1   
    27     9    38 1   
    28    10    22 ar  
    29    10    23 ar  
    30    10    39 1   
    31    11    16 ar  
    32    11    23 ar  
    33    11    24 1   
    34    12    15 ar  
    35    12    40 1   
    36    13    14 ar  
    37    13    41 1   
    38    14    15 ar  
    39    14    24 1   
    40    15    16 1   
    41    16    17 ar  
    42    17    22 ar  
    43    18    19 1   
    44    18    42 1   
    45    19    43 1   
    46    19    44 1   
    47    20    47 1   
    48    24    45 1   
    49    30    47 1   
    50    31    47 1   
@<TRIPOS>SUBSTRUCTURE
     1 SZW         1 TEMP              0 ****  ****    0 ROOT
