@<TRIPOS>MOLECULE
SZW
   47    50     1     0     0
SMALL
abcg2


@<TRIPOS>ATOM
      1 N           -9.0010     2.2370    31.7770 nh         1 SZW      -0.773300
      2 C           -6.2380     7.5620    32.5610 ca         1 SZW       0.143000
      3 C1          -5.7860     6.2480    32.4600 ca         1 SZW      -0.126000
      4 C10         -6.4620     1.1080    34.3600 c6         1 SZW      -0.077400
      5 C11         -5.3260     0.8600    33.3810 c6         1 SZW       0.161800
      6 C13         -2.8700     2.0150    32.0330 c3         1 SZW      -0.017300
      7 C14         -2.8530     3.3490    32.6110 c1         1 SZW       0.311900
      8 C15         -6.5890     1.8210    31.5860 c6         1 SZW       0.150800
      9 C16         -9.6030     0.9990    31.3110 c3         1 SZW       0.220100
     10 C17        -11.8600     4.1950    31.3500 ca         1 SZW       0.191900
     11 C18        -10.3130     5.6680    31.8740 ca         1 SZW       0.189500
     12 C2          -6.6820     5.2130    32.2580 ca         1 SZW      -0.072000
     13 C3          -7.5760     7.8780    32.4570 ca         1 SZW      -0.133000
     14 C4          -8.4550     6.8230    32.2520 ca         1 SZW      -0.016200
     15 C5          -8.0560     5.4680    32.1580 cp         1 SZW      -0.046000
     16 C6          -9.2800     4.7060    31.9350 cp         1 SZW      -0.234000
     17 C7          -9.7320     3.3710    31.7150 ca         1 SZW       0.441900
     18 C8          -7.7590     2.1320    32.5190 c6         1 SZW       0.229500
     19 C9          -7.8120     1.1120    33.6540 c6         1 SZW      -0.094400
     20 N1          -5.3300     1.8420    32.3080 n3         1 SZW      -0.720600
     21 N2          -2.8240     4.4080    33.0600 n1         1 SZW      -0.465000
     22 N3         -11.0210     3.1800    31.3890 nb         1 SZW      -0.308000
     23 N4         -11.5980     5.4610    31.6050 nb         1 SZW      -0.244000
     24 N5          -9.8080     6.9040    32.0920 na         1 SZW      -0.322300
     25 H1          -4.7310     6.0280    32.5450 ha         1 SZW       0.146000
     26 H2          -6.4420     0.3390    35.1330 hc         1 SZW       0.055200
     27 H3          -6.3010     2.0680    34.8590 hc         1 SZW       0.055200
     28 H4          -5.4030    -0.1650    32.9770 h1         1 SZW       0.033700
     29 H5          -4.3790     0.9150    33.9210 h1         1 SZW       0.033700
     30 H6          -4.3710     2.3510    30.5490 h1         1 SZW       0.042700
     31 H7          -4.1480     0.6610    30.9900 h1         1 SZW       0.042700
     32 H8          -2.5920     1.3020    32.8100 hc         1 SZW       0.071200
     33 H9          -2.0900     1.9630    31.2710 hc         1 SZW       0.071200
     34 H10         -6.5520     2.5670    30.7870 h1         1 SZW       0.042200
     35 H11         -6.7600     0.8470    31.0950 h1         1 SZW       0.042200
     36 H12         -8.8260     0.2460    31.2060 h1         1 SZW       0.043033
     37 H13        -10.3610     0.6140    31.9940 h1         1 SZW       0.043033
     38 H14        -10.0640     1.1360    30.3360 h1         1 SZW       0.043033
     39 H15        -12.8850     3.9550    31.0840 h5         1 SZW       0.045100
     40 H16         -6.2610     4.2220    32.1930 ha         1 SZW       0.136000
     41 H17         -7.9300     8.8980    32.5230 ha         1 SZW       0.132000
     42 H18         -7.5870     3.0920    32.9990 h1         1 SZW       0.087700
     43 H19         -8.6150     1.3630    34.3500 hc         1 SZW       0.051200
     44 H20         -8.0200     0.1100    33.2680 hc         1 SZW       0.051200
     45 H22        -10.3520     7.7520    32.0710 hn         1 SZW       0.368000
     46 CL          -5.0870     8.8320    32.8190 cl         1 SZW      -0.202000
     47 C12         -4.2180     1.6810    31.3970 c3         1 SZW       0.174800
@<TRIPOS>BOND
     1     1     9 1   
     2     1    17 1   
     3     1    18 1   
     4     2     3 ar  
     5     2    13 ar  
     6     2    46 1   
     7     3    12 ar  
     8     3    25 1   
     9     4     5 1   
    10     4    19 1   
    11     4    26 1   
    12     4    27 1   
    13     5    20 1   
    14     5    28 1   
    15     5    29 1   
    16     6     7 1   
    17     6    32 1   
    18     6    33 1   
    19     6    47 1   
    20     7    21 3   
    21     8    18 1   
    22     8    20 1   
    23     8    34 1   
    24     8    35 1   
    25     9    36 1   
    26     9    37 1   
    27     9    38 1   
    28    10    22 ar  
    29    10    23 ar  
    30    10    39 1   
    31    11    16 ar  
    32    11    23 ar  
    33    11    24 1   
    34    12    15 ar  
    35    12    40 1   
    36    13    14 ar  
    37    13    41 1   
    38    14    15 ar  
    39    14    24 1   
    40    15    16 1   
    41    16    17 ar  
    42    17    22 ar  
    43    18    19 1   
    44    18    42 1   
    45    19    43 1   
    46    19    44 1   
    47    20    47 1   
    48    24    45 1   
    49    30    47 1   
    50    31    47 1   
@<TRIPOS>SUBSTRUCTURE
     1 SZW         1 TEMP              0 ****  ****    0 ROOT
