@<TRIPOS>MOLECULE
SZX
   27    28     1     0     0
SMALL
abcg2


@<TRIPOS>ATOM
      1 N1           1.1430    -1.6710   -50.8330 nb         1 SZX      -0.725000
      2 C4          -0.2610    -2.5800   -52.5480 ca         1 SZX      -0.194000
      3 C5           0.1520    -1.5480   -51.7180 ca         1 SZX       0.366900
      4 C6           4.6240    -3.4920   -48.3390 c6         1 SZX       0.044300
      5 C7           6.0440    -3.6140   -48.8960 c6         1 SZX       0.131600
      6 C8           6.7600    -1.9090   -47.4490 c6         1 SZX       0.113600
      7 C            3.6090    -3.8690   -49.4090 c          1 SZX       0.619100
      8 O            3.5980    -5.0060   -49.8640 o          1 SZX      -0.587100
      9 C1           1.7680    -2.8480   -50.7450 ca         1 SZX       0.473900
     10 C2           1.4330    -3.9500   -51.5350 ca         1 SZX      -0.176000
     11 C3           0.4000    -3.7990   -52.4470 ca         1 SZX      -0.051000
     12 C9           5.3600    -1.7800   -46.8890 c6         1 SZX       0.127600
     13 O1           6.9920    -3.2440   -47.9040 os         1 SZX      -0.446000
     14 O2           4.3920    -2.1700   -47.8710 os         1 SZX      -0.473000
     15 H1          -1.0700    -2.4300   -53.2490 ha         1 SZX       0.126000
     16 H2          -0.3310    -0.5780   -51.7600 h4         1 SZX       0.020100
     17 H3           4.5030    -4.2040   -47.5130 h1         1 SZX       0.080700
     18 H5           6.1450    -2.9650   -49.7750 h1         1 SZX       0.069700
     19 H6           7.5020    -1.7010   -46.6790 h1         1 SZX       0.061200
     20 H7           6.8990    -1.2090   -48.2820 h1         1 SZX       0.061200
     21 H9           1.9660    -4.8790   -51.4290 ha         1 SZX       0.156000
     22 H10          0.1140    -4.6330   -53.0750 ha         1 SZX       0.121000
     23 H11          5.1370    -0.7460   -46.6260 h1         1 SZX       0.062700
     24 H12          5.2460    -2.4120   -46.0010 h1         1 SZX       0.062700
     25 N            2.7890    -2.8580   -49.7880 ns         1 SZX      -0.306900
     26 H4           6.2520    -4.6440   -49.1790 h1         1 SZX       0.069700
     27 H8           2.9260    -1.9790   -49.3060 hn         1 SZX       0.190000
@<TRIPOS>BOND
     1     1     3 ar  
     2     1     9 ar  
     3     2     3 ar  
     4     2    11 ar  
     5     2    15 1   
     6     3    16 1   
     7     4     5 1   
     8     4     7 1   
     9     4    14 1   
    10     4    17 1   
    11     5    13 1   
    12     5    18 1   
    13     5    26 1   
    14     6    12 1   
    15     6    13 1   
    16     6    19 1   
    17     6    20 1   
    18     7     8 2   
    19     7    25 1   
    20     9    10 ar  
    21     9    25 1   
    22    10    11 ar  
    23    10    21 1   
    24    11    22 1   
    25    12    14 1   
    26    12    23 1   
    27    12    24 1   
    28    25    27 1   
@<TRIPOS>SUBSTRUCTURE
     1 SZX         1 TEMP              0 ****  ****    0 ROOT
