@<TRIPOS>MOLECULE
SZX
   27    28     1     0     0
SMALL
No Charge or Current Charge


@<TRIPOS>ATOM
      1 N1           2.1310    -2.3070   -52.2400 nb         1 SZX      -0.725000
      2 C4          -0.0230    -3.0480   -53.0640 ca         1 SZX      -0.194000
      3 C5           1.1460    -2.2770   -53.1680 ca         1 SZX       0.366900
      4 C6           4.6550    -3.1940   -48.3980 c6         1 SZX       0.044300
      5 C7           5.3550    -1.9060   -48.9370 c6         1 SZX       0.131600
      6 C8           6.6170    -1.7410   -46.8790 c6         1 SZX       0.113600
      7 C            3.2610    -3.5010   -49.0360 c          1 SZX       0.619100
      8 O            2.3840    -4.0890   -48.4120 o          1 SZX      -0.587100
      9 C1           1.9650    -3.1150   -51.1750 ca         1 SZX       0.473900
     10 C2           0.8290    -3.9280   -50.9920 ca         1 SZX      -0.176000
     11 C3          -0.1910    -3.8950   -51.9570 ca         1 SZX      -0.051000
     12 C9           5.9560    -3.0430   -46.3510 c6         1 SZX       0.127600
     13 O1           6.6640    -1.7760   -48.3280 os         1 SZX      -0.446000
     14 O2           4.6360    -3.1880   -46.9340 os         1 SZX      -0.473000
     15 H1          -0.7840    -2.9880   -53.8370 ha         1 SZX       0.126000
     16 H2           1.3000    -1.6150   -54.0190 h4         1 SZX       0.020100
     17 H3           5.2740    -4.0440   -48.7180 h1         1 SZX       0.080700
     18 H5           4.7500    -1.0170   -48.7050 h1         1 SZX       0.069700
     19 H6           7.6400    -1.6530   -46.4870 h1         1 SZX       0.061200
     20 H7           6.0450    -0.8620   -46.5490 h1         1 SZX       0.061200
     21 H9           0.7310    -4.5820   -50.1330 ha         1 SZX       0.156000
     22 H10         -1.0840    -4.5090   -51.8500 ha         1 SZX       0.121000
     23 H11          5.8650    -3.0020   -45.2560 h1         1 SZX       0.062700
     24 H12          6.5730    -3.9150   -46.6130 h1         1 SZX       0.062700
     25 N            3.0680    -3.0310   -50.3190 ns         1 SZX      -0.306900
     26 H4           5.4860    -1.9610   -50.0270 h1         1 SZX       0.069700
     27 H8           3.8450    -2.5330   -50.7250 hn         1 SZX       0.190000
@<TRIPOS>BOND
     1     1     3 ar  
     2     1     9 ar  
     3     2     3 ar  
     4     2    11 ar  
     5     2    15 1   
     6     3    16 1   
     7     4     5 1   
     8     4     7 1   
     9     4    14 1   
    10     4    17 1   
    11     5    13 1   
    12     5    18 1   
    13     5    26 1   
    14     6    12 1   
    15     6    13 1   
    16     6    19 1   
    17     6    20 1   
    18     7     8 2   
    19     7    25 1   
    20     9    10 ar  
    21     9    25 1   
    22    10    11 ar  
    23    10    21 1   
    24    11    22 1   
    25    12    14 1   
    26    12    23 1   
    27    12    24 1   
    28    25    27 1   
@<TRIPOS>SUBSTRUCTURE
     1 SZX         1 TEMP              0 ****  ****    0 ROOT
