@<TRIPOS>MOLECULE
SZY
   21    21     1     0     0
SMALL
No Charge or Current Charge


@<TRIPOS>ATOM
      1 C10         -1.2170    -0.9680     0.0610 ca         1 SZY      -0.069300
      2 C01          3.5970    -0.5560    -0.1930 c3         1 SZY      -0.180100
      3 C02          2.3460     0.3160    -0.1760 c          1 SZY       0.605100
      4 C05         -0.2080     0.0180    -0.0380 ca         1 SZY      -0.090000
      5 C06         -0.6070     1.3790    -0.0880 ca         1 SZY       0.345900
      6 C08         -2.8530     0.8270     0.0490 ca         1 SZY       0.325900
      7 C09         -2.5570    -0.5430     0.1040 ca         1 SZY      -0.151000
      8 C11         -0.8840    -2.4560     0.1210 c3         1 SZY      -0.051800
      9 N04          1.1580    -0.3970    -0.0830 ns         1 SZY      -0.162000
     10 N07         -1.9010     1.7800    -0.0450 nb         1 SZY      -0.653000
     11 O03          2.4150     1.5370    -0.2420 o          1 SZY      -0.577100
     12 H012         3.5130    -1.2850    -1.0070 hc         1 SZY       0.063033
     13 H011         4.5200     0.0300    -0.2670 hc         1 SZY       0.063033
     14 H013         3.5950    -1.1990     0.6950 hc         1 SZY       0.063033
     15 H061         0.1140     2.1880    -0.1640 h4         1 SZY       0.036100
     16 H081        -3.8860     1.1740     0.0810 h4         1 SZY       0.021100
     17 H091        -3.3690    -1.2610     0.1800 ha         1 SZY       0.122000
     18 H111        -0.3450    -2.7760    -0.7790 hc         1 SZY       0.046367
     19 H113        -0.2590    -2.6860     0.9910 hc         1 SZY       0.046367
     20 H112        -1.7890    -3.0710     0.1960 hc         1 SZY       0.046367
     21 H041         1.2830    -1.4000    -0.0380 hn         1 SZY       0.153000
@<TRIPOS>BOND
     1     1     4 ar  
     2     1     7 ar  
     3     1     8 1   
     4     2     3 1   
     5     2    12 1   
     6     2    13 1   
     7     2    14 1   
     8     3     9 1   
     9     3    11 2   
    10     4     5 ar  
    11     4     9 1   
    12     5    10 ar  
    13     5    15 1   
    14     6     7 ar  
    15     6    10 ar  
    16     6    16 1   
    17     7    17 1   
    18     8    18 1   
    19     8    19 1   
    20     8    20 1   
    21     9    21 1   
@<TRIPOS>SUBSTRUCTURE
     1 SZY         1 TEMP              0 ****  ****    0 ROOT
