@<TRIPOS>MOLECULE
SZY
   21    21     1     0     0
SMALL
bcc


@<TRIPOS>ATOM
      1 C10         -1.1980    -0.9650     0.0440 ca         1 SZY      -0.069300
      2 C01          3.5150    -0.5400    -0.1150 c3         1 SZY      -0.180100
      3 C02          2.2000     0.1310     0.1860 c          1 SZY       0.672100
      4 C05         -0.2080    -0.0220    -0.2440 ca         1 SZY      -0.062700
      5 C06         -0.5690     1.3160    -0.3780 ca         1 SZY       0.411200
      6 C08         -2.7530     0.8630     0.0470 ca         1 SZY       0.391200
      7 C09         -2.4970    -0.4910     0.1810 ca         1 SZY      -0.234300
      8 C11         -0.8730    -2.4170     0.1990 c3         1 SZY      -0.051800
      9 N04          1.1220    -0.4370    -0.4150 ns         1 SZY      -0.488100
     10 N07         -1.8090     1.7560    -0.2280 nb         1 SZY      -0.653000
     11 O03          2.1170     1.1050     0.9110 o          1 SZY      -0.577100
     12 H012         3.4220    -1.4270    -0.7390 hc         1 SZY       0.063033
     13 H011         4.1730     0.1680    -0.6180 hc         1 SZY       0.063033
     14 H013         3.9970    -0.8240     0.8200 hc         1 SZY       0.063033
     15 H061         0.1810     2.0580    -0.6250 h4         1 SZY       0.036100
     16 H081        -3.7630     1.2400     0.1610 h4         1 SZY       0.021100
     17 H091        -3.3060    -1.1740     0.4030 ha         1 SZY       0.140000
     18 H111        -0.5480    -2.8600    -0.7460 hc         1 SZY       0.046367
     19 H113        -0.0680    -2.5700     0.9190 hc         1 SZY       0.046367
     20 H112        -1.7430    -2.9770     0.5370 hc         1 SZY       0.046367
     21 H041         1.2740    -1.2840    -0.9390 hn         1 SZY       0.319500
@<TRIPOS>BOND
     1     1     4 ar  
     2     1     7 ar  
     3     1     8 1   
     4     2     3 1   
     5     2    12 1   
     6     2    13 1   
     7     2    14 1   
     8     3     9 1   
     9     3    11 2   
    10     4     5 ar  
    11     4     9 1   
    12     5    10 ar  
    13     5    15 1   
    14     6     7 ar  
    15     6    10 ar  
    16     6    16 1   
    17     7    17 1   
    18     8    18 1   
    19     8    19 1   
    20     8    20 1   
    21     9    21 1   
@<TRIPOS>SUBSTRUCTURE
     1 SZY         1 TEMP              0 ****  ****    0 ROOT
