@<TRIPOS>MOLECULE
SZZ
   38    38     1     0     0
SMALL
No Charge or Current Charge


@<TRIPOS>ATOM
      1 O15          2.7390     1.3770    -2.9230 o          1 SZZ      -0.694533
      2 S12          3.2460     1.5400    -1.5500 s6         1 SZZ       1.497300
      3 O14          4.7030     1.7310    -1.4660 o          1 SZZ      -0.694533
      4 O13          2.4680     2.4850    -0.7320 o          1 SZZ      -0.694533
      5 O11          2.9940     0.0570    -0.8350 os         1 SZZ      -0.428700
      6 N10          1.6220    -0.3740    -0.7800 n2         1 SZZ      -0.249700
      7 C09          1.4330    -1.5670    -0.3100 c2         1 SZZ       0.390200
      8 C16          2.5390    -2.5490     0.0750 c3         1 SZZ      -0.079500
      9 C17          2.6970    -2.6630     1.5820 c2         1 SZZ      -0.178200
     10 C18          2.7370    -3.8150     2.2690 c2         1 SZZ      -0.349000
     11 S08         -0.2240    -2.2530    -0.2220 ss         1 SZZ      -0.316200
     12 C07         -1.3000    -0.7550    -0.3620 c6         1 SZZ       0.256300
     13 O06         -1.2540    -0.0600     0.9040 os         1 SZZ      -0.411000
     14 C19         -2.7810    -1.1230    -0.7000 c6         1 SZZ       0.122300
     15 O20         -2.9020    -1.8080    -1.9690 oh         1 SZZ      -0.722000
     16 C21         -3.6300     0.1810    -0.7230 c6         1 SZZ       0.135300
     17 O22         -5.0080    -0.1250    -1.0020 oh         1 SZZ      -0.678000
     18 C23         -3.4940     0.9370     0.6300 c6         1 SZZ       0.144300
     19 O24         -4.2580     2.1560     0.5800 oh         1 SZZ      -0.717000
     20 C05         -1.9840     1.1960     0.9340 c6         1 SZZ       0.160300
     21 C04         -1.7740     1.8570     2.3370 c3         1 SZZ       0.175600
     22 O03         -0.3880     2.0400     2.6840 oh         1 SZZ      -0.684000
     23 H1           2.3030    -3.5320    -0.3490 hc         1 SZZ       0.060700
     24 H2           3.5000    -2.2750    -0.3740 hc         1 SZZ       0.060700
     25 H3           2.7850    -1.7030     2.1010 ha         1 SZZ       0.198000
     26 H4           2.6540    -4.7840     1.7740 ha         1 SZZ       0.151000
     27 H5           2.8550    -3.8280     3.3540 ha         1 SZZ       0.151000
     28 H6          -0.8930    -0.1210    -1.1650 h2         1 SZZ       0.115700
     29 H7          -3.1600    -1.7680     0.1070 h1         1 SZZ       0.049700
     30 H8          -2.3900    -2.6480    -1.8950 ho         1 SZZ       0.523000
     31 H9          -3.2270     0.8280    -1.5180 h1         1 SZZ       0.067700
     32 H10         -4.9710    -0.8470    -1.6730 ho         1 SZZ       0.461000
     33 H11         -3.8920     0.2890     1.4250 h1         1 SZZ       0.042700
     34 H12         -5.0870     1.9110     0.1010 ho         1 SZZ       0.514000
     35 H13         -1.5660     1.8700     0.1720 h1         1 SZZ       0.084700
     36 H14         -2.2870     2.8280     2.3420 h1         1 SZZ       0.022200
     37 H15         -2.2660     1.2250     3.0890 h1         1 SZZ       0.022200
     38 H16         -0.3670     2.4090     3.5960 ho         1 SZZ       0.492000
@<TRIPOS>BOND
     1     1     2 1   
     2     2     3 1   
     3     2     4 1   
     4     2     5 1   
     5     5     6 1   
     6     6     7 2   
     7     7     8 1   
     8     7    11 1   
     9     8     9 1   
    10     8    23 1   
    11     8    24 1   
    12     9    10 2   
    13     9    25 1   
    14    10    26 1   
    15    10    27 1   
    16    11    12 1   
    17    12    13 1   
    18    12    14 1   
    19    12    28 1   
    20    13    20 1   
    21    14    15 1   
    22    14    16 1   
    23    14    29 1   
    24    15    30 1   
    25    16    17 1   
    26    16    18 1   
    27    16    31 1   
    28    17    32 1   
    29    18    19 1   
    30    18    20 1   
    31    18    33 1   
    32    19    34 1   
    33    20    21 1   
    34    20    35 1   
    35    21    22 1   
    36    21    36 1   
    37    21    37 1   
    38    22    38 1   
@<TRIPOS>SUBSTRUCTURE
     1 SZZ         1 TEMP              0 ****  ****    0 ROOT
