@<TRIPOS>MOLECULE
SZZ
   38    38     1     0     0
SMALL
abcg2


@<TRIPOS>ATOM
      1 O15          2.2910     1.5110    -2.5710 o          1 SZZ      -0.694533
      2 S12          3.1810     1.2710    -1.4400 s6         1 SZZ       1.497300
      3 O14          4.5950     1.1500    -1.7760 o          1 SZZ      -0.694533
      4 O13          2.8880     2.0600    -0.2490 o          1 SZZ      -0.694533
      5 O11          2.8980    -0.3280    -0.9900 os         1 SZZ      -0.428700
      6 N10          1.5800    -0.5130    -0.6420 n2         1 SZZ      -0.249700
      7 C09          1.3490    -1.6950    -0.2530 c2         1 SZZ       0.390200
      8 C16          2.3420    -2.8180    -0.1130 c3         1 SZZ      -0.079500
      9 C17          3.1510    -2.6540     1.1420 c2         1 SZZ      -0.178200
     10 C18          3.0950    -3.4870     2.1730 c2         1 SZZ      -0.349000
     11 S08         -0.2830    -2.1470     0.2360 ss         1 SZZ      -0.316200
     12 C07         -1.2640    -0.6520    -0.0420 c6         1 SZZ       0.256300
     13 O06         -1.4350    -0.0070     1.1870 os         1 SZZ      -0.411000
     14 C19         -2.6150    -1.0620    -0.6350 c6         1 SZZ       0.122300
     15 O20         -2.4740    -1.6250    -1.9110 oh         1 SZZ      -0.722000
     16 C21         -3.4640     0.1960    -0.7820 c6         1 SZZ       0.135300
     17 O22         -4.7780    -0.0990    -1.1880 oh         1 SZZ      -0.678000
     18 C23         -3.5510     0.9450     0.5430 c6         1 SZZ       0.144300
     19 O24         -4.2050     2.1790     0.3860 oh         1 SZZ      -0.717000
     20 C05         -2.1420     1.2160     1.0730 c6         1 SZZ       0.160300
     21 C04         -2.1670     1.8570     2.4440 c3         1 SZZ       0.175600
     22 O03         -0.8490     2.1600     2.8290 oh         1 SZZ      -0.684000
     23 H1           1.8170    -3.7760    -0.0980 hc         1 SZZ       0.060700
     24 H2           2.9950    -2.8250    -0.9880 hc         1 SZZ       0.060700
     25 H3           3.8060    -1.7910     1.1810 ha         1 SZZ       0.198000
     26 H4           2.4520    -4.3600     2.1740 ha         1 SZZ       0.151000
     27 H5           3.6970    -3.3250     3.0580 ha         1 SZZ       0.151000
     28 H6          -0.7210    -0.0220    -0.7580 h2         1 SZZ       0.115700
     29 H7          -3.1190    -1.7490     0.0620 h1         1 SZZ       0.049700
     30 H8          -2.0580    -2.4900    -1.8280 ho         1 SZZ       0.523000
     31 H9          -2.9650     0.8550    -1.5100 h1         1 SZZ       0.067700
     32 H10         -4.7580    -0.3940    -2.1030 ho         1 SZZ       0.461000
     33 H11         -4.0780     0.3070     1.2700 h1         1 SZZ       0.042700
     34 H12         -5.0870     2.0080     0.0420 ho         1 SZZ       0.514000
     35 H13         -1.6230     1.8850     0.3680 h1         1 SZZ       0.084700
     36 H14         -2.7920     2.7550     2.3940 h1         1 SZZ       0.022200
     37 H15         -2.6520     1.1660     3.1480 h1         1 SZZ       0.022200
     38 H16         -0.8850     2.6160     3.6740 ho         1 SZZ       0.492000
@<TRIPOS>BOND
     1     1     2 1   
     2     2     3 1   
     3     2     4 1   
     4     2     5 1   
     5     5     6 1   
     6     6     7 2   
     7     7     8 1   
     8     7    11 1   
     9     8     9 1   
    10     8    23 1   
    11     8    24 1   
    12     9    10 2   
    13     9    25 1   
    14    10    26 1   
    15    10    27 1   
    16    11    12 1   
    17    12    13 1   
    18    12    14 1   
    19    12    28 1   
    20    13    20 1   
    21    14    15 1   
    22    14    16 1   
    23    14    29 1   
    24    15    30 1   
    25    16    17 1   
    26    16    18 1   
    27    16    31 1   
    28    17    32 1   
    29    18    19 1   
    30    18    20 1   
    31    18    33 1   
    32    19    34 1   
    33    20    21 1   
    34    20    35 1   
    35    21    22 1   
    36    21    36 1   
    37    21    37 1   
    38    22    38 1   
@<TRIPOS>SUBSTRUCTURE
     1 SZZ         1 TEMP              0 ****  ****    0 ROOT
