@<TRIPOS>MOLECULE
V00
   60    63     1     0     0
SMALL
abcg2


@<TRIPOS>ATOM
      1 C01         34.2400     0.8700   106.9750 c3         1 V00       0.146900
      2 O02         33.0910     0.6850   106.1750 os         1 V00      -0.339100
      3 C03         32.4000    -0.4610   106.3090 ca         1 V00       0.143100
      4 C04         31.2740    -0.5800   105.4590 ca         1 V00      -0.117000
      5 C05         30.4690    -1.6850   105.4620 ca         1 V00      -0.055300
      6 C06         29.2930    -1.7840   104.5050 c3         1 V00       0.262800
      7 C07         28.7730    -0.4290   104.0340 c3         1 V00      -0.088100
      8 N08         29.5510    -2.6310   103.3290 n3         1 V00      -0.782600
      9 C09         28.5960    -3.6970   103.1250 c6         1 V00       0.197800
     10 C10         28.6460    -4.2150   101.6950 c6         1 V00      -0.069900
     11 C11         30.0680    -4.6670   101.3470 c6         1 V00      -0.141700
     12 C12         30.1210    -5.1700    99.9180 c          1 V00       0.604100
     13 O13         30.3130    -4.4280    98.9650 o          1 V00      -0.600100
     14 N14         29.8950    -6.4910    99.7830 ns         1 V00      -0.509900
     15 C15         29.8150    -7.1800    98.5170 c3         1 V00       0.144300
     16 C16         31.0360    -8.0170    98.2240 ca         1 V00      -0.085300
     17 C17         32.3060    -7.4420    98.2020 ca         1 V00      -0.107000
     18 C18         33.4210    -8.2170    97.9230 ca         1 V00      -0.087000
     19 C19         33.2950    -9.5770    97.6630 ca         1 V00      -0.148000
     20 C20         32.0300   -10.1260    97.6900 ca         1 V00       0.168000
     21 C22         30.9010    -9.3750    97.9660 ca         1 V00      -0.148000
     22 C23         31.0330    -3.5160   101.6010 c6         1 V00      -0.069900
     23 C24         30.9120    -3.0250   103.0380 c6         1 V00       0.197800
     24 C25         30.7670    -2.7530   106.3680 ca         1 V00      -0.056000
     25 C26         29.9850    -3.9280   106.4660 ca         1 V00      -0.094000
     26 C27         30.3040    -4.9290   107.3460 ca         1 V00      -0.120000
     27 C28         31.4300    -4.8060   108.1800 ca         1 V00      -0.099000
     28 C29         32.2050    -3.6790   108.1170 ca         1 V00      -0.110000
     29 C30         31.8980    -2.6310   107.2190 ca         1 V00       0.000000
     30 C31         32.7120    -1.4730   107.1760 ca         1 V00      -0.203000
     31 F21         31.8830   -11.4390    97.4480 f          1 V00      -0.181000
     32 H1          34.6480     1.8430   106.7130 h1         1 V00       0.041700
     33 H2          34.0000     0.8640   108.0410 h1         1 V00       0.041700
     34 H3          34.9980     0.1060   106.7810 h1         1 V00       0.041700
     35 H4          31.0710     0.2430   104.7860 ha         1 V00       0.133000
     36 H5          28.4750    -2.2430   105.0720 h1         1 V00       0.042700
     37 H6          28.5450     0.2360   104.8690 hc         1 V00       0.041033
     38 H7          29.4850     0.0700   103.3770 hc         1 V00       0.041033
     39 H8          27.8560    -0.5790   103.4640 hc         1 V00       0.041033
     40 H10         27.5930    -3.3170   103.3310 h1         1 V00       0.031200
     41 H11         28.7590    -4.5500   103.8080 h1         1 V00       0.031200
     42 H12         28.3360    -3.4210   101.0100 hc         1 V00       0.057700
     43 H13         27.9410    -5.0410   101.5850 hc         1 V00       0.057700
     44 H14         30.3300    -5.4900   102.0230 hc         1 V00       0.049700
     45 H15         29.7780    -7.0450   100.6160 hn         1 V00       0.312500
     46 H16         29.6770    -6.4350    97.7340 h1         1 V00       0.066200
     47 H17         28.9260    -7.8120    98.5150 h1         1 V00       0.066200
     48 H18         32.4250    -6.3830    98.3950 ha         1 V00       0.131000
     49 H19         34.4030    -7.7630    97.9060 ha         1 V00       0.119000
     50 H20         34.1600   -10.1910    97.4470 ha         1 V00       0.132000
     51 H21         29.9270    -9.8480    97.9830 ha         1 V00       0.128000
     52 H22         32.0630    -3.8320   101.4190 hc         1 V00       0.057700
     53 H23         30.8170    -2.6940   100.9150 hc         1 V00       0.057700
     54 H24         31.2790    -3.8180   103.7120 h1         1 V00       0.031200
     55 H25         31.5740    -2.1690   103.1710 h1         1 V00       0.031200
     56 H26         29.1120    -4.0460   105.8410 ha         1 V00       0.110000
     57 H27         29.6850    -5.8150   107.4010 ha         1 V00       0.112000
     58 H28         31.6780    -5.5990   108.8730 ha         1 V00       0.113000
     59 H29         33.0700    -3.5750   108.7610 ha         1 V00       0.112000
     60 H30         33.5660    -1.4210   107.8380 ha         1 V00       0.119000
@<TRIPOS>BOND
     1     1     2 1   
     2     1    32 1   
     3     1    33 1   
     4     1    34 1   
     5     2     3 1   
     6     3     4 ar  
     7     3    30 ar  
     8     4     5 ar  
     9     4    35 1   
    10     5     6 1   
    11     5    24 ar  
    12     6     7 1   
    13     6     8 1   
    14     6    36 1   
    15     7    37 1   
    16     7    38 1   
    17     7    39 1   
    18     8     9 1   
    19     8    23 1   
    20     9    10 1   
    21     9    40 1   
    22     9    41 1   
    23    10    11 1   
    24    10    42 1   
    25    10    43 1   
    26    11    12 1   
    27    11    22 1   
    28    11    44 1   
    29    12    13 2   
    30    12    14 1   
    31    14    15 1   
    32    14    45 1   
    33    15    16 1   
    34    15    46 1   
    35    15    47 1   
    36    16    17 ar  
    37    16    21 ar  
    38    17    18 ar  
    39    17    48 1   
    40    18    19 ar  
    41    18    49 1   
    42    19    20 ar  
    43    19    50 1   
    44    20    21 ar  
    45    20    31 1   
    46    21    51 1   
    47    22    23 1   
    48    22    52 1   
    49    22    53 1   
    50    23    54 1   
    51    23    55 1   
    52    24    25 ar  
    53    24    29 ar  
    54    25    26 ar  
    55    25    56 1   
    56    26    27 ar  
    57    26    57 1   
    58    27    28 ar  
    59    27    58 1   
    60    28    29 ar  
    61    28    59 1   
    62    29    30 ar  
    63    30    60 1   
@<TRIPOS>SUBSTRUCTURE
     1 V00         1 TEMP              0 ****  ****    0 ROOT
