@<TRIPOS>MOLECULE
V00
   60    63     1     0     0
SMALL
No Charge or Current Charge


@<TRIPOS>ATOM
      1 C01         34.7990     0.1520   105.5130 c3         1 V00       0.146900
      2 O02         33.5420    -0.2750   104.9590 os         1 V00      -0.339100
      3 C03         32.6590    -1.0730   105.6600 ca         1 V00       0.143100
      4 C04         31.4630    -1.4370   105.0310 ca         1 V00      -0.117000
      5 C05         30.5080    -2.2610   105.6690 ca         1 V00      -0.055300
      6 C06         29.2260    -2.6190   104.8830 c3         1 V00       0.262800
      7 C07         28.2300    -1.4460   105.0420 c3         1 V00      -0.088100
      8 N08         29.5090    -2.9950   103.4590 n3         1 V00      -0.782600
      9 C09         28.2800    -3.2720   102.6500 c6         1 V00       0.197800
     10 C10         28.6060    -3.5400   101.1590 c6         1 V00      -0.069900
     11 C11         29.6510    -4.6710   101.0080 c6         1 V00      -0.141700
     12 C12         30.0040    -4.9970    99.5430 c          1 V00       0.604100
     13 O13         30.5570    -4.1860    98.8130 o          1 V00      -0.600100
     14 N14         29.6570    -6.2570    99.1100 ns         1 V00      -0.509900
     15 C15         29.9370    -6.7860    97.7750 c3         1 V00       0.144300
     16 C16         31.2550    -7.5460    97.7480 ca         1 V00      -0.085300
     17 C17         32.4590    -6.8720    97.4610 ca         1 V00      -0.107000
     18 C18         33.6800    -7.5710    97.4410 ca         1 V00      -0.087000
     19 C19         33.7030    -8.9500    97.7110 ca         1 V00      -0.148000
     20 C20         32.5060    -9.6240    97.9990 ca         1 V00       0.168000
     21 C22         31.2860    -8.9290    98.0190 ca         1 V00      -0.148000
     22 C23         30.8890    -4.4380   101.9050 c6         1 V00      -0.069900
     23 C24         30.4670    -4.1440   103.3650 c6         1 V00       0.197800
     24 C25         30.7610    -2.6960   107.0030 ca         1 V00      -0.056000
     25 C26         29.8360    -3.4790   107.7400 ca         1 V00      -0.094000
     26 C27         30.1270    -3.8950   109.0500 ca         1 V00      -0.120000
     27 C28         31.3400    -3.5360   109.6530 ca         1 V00      -0.099000
     28 C29         32.2620    -2.7510   108.9470 ca         1 V00      -0.110000
     29 C30         31.9790    -2.3270   107.6340 ca         1 V00       0.000000
     30 C31         32.9210    -1.5270   106.9650 ca         1 V00      -0.203000
     31 F21         32.5280   -10.9490    98.2600 f          1 V00      -0.181000
     32 H1          35.3400     0.7750   104.7900 h1         1 V00       0.041700
     33 H2          34.6430     0.7450   106.4230 h1         1 V00       0.041700
     34 H3          35.4310    -0.7110   105.7580 h1         1 V00       0.041700
     35 H4          31.2770    -1.0800   104.0220 ha         1 V00       0.133000
     36 H5          28.7560    -3.4950   105.3410 h1         1 V00       0.042700
     37 H6          28.1620    -1.1460   106.0940 hc         1 V00       0.041033
     38 H7          28.5560    -0.5760   104.4590 hc         1 V00       0.041033
     39 H8          27.2210    -1.7280   104.7220 hc         1 V00       0.041033
     40 H10         27.5870    -2.4210   102.6780 h1         1 V00       0.031200
     41 H11         27.7430    -4.1400   103.0620 h1         1 V00       0.031200
     42 H12         28.9900    -2.6170   100.7040 hc         1 V00       0.057700
     43 H13         27.6850    -3.7980   100.6190 hc         1 V00       0.057700
     44 H14         29.1670    -5.5760   101.4010 hc         1 V00       0.049700
     45 H15         29.2060    -6.8640    99.7840 hn         1 V00       0.312500
     46 H16         29.9630    -5.9650    97.0460 h1         1 V00       0.066200
     47 H17         29.1180    -7.4570    97.4840 h1         1 V00       0.066200
     48 H18         32.4490    -5.8030    97.2550 ha         1 V00       0.131000
     49 H19         34.6050    -7.0430    97.2190 ha         1 V00       0.119000
     50 H20         34.6430    -9.4960    97.6970 ha         1 V00       0.132000
     51 H21         30.3680    -9.4650    98.2480 ha         1 V00       0.128000
     52 H22         31.5490    -5.3170   101.8800 hc         1 V00       0.057700
     53 H23         31.4760    -3.5920   101.5210 hc         1 V00       0.057700
     54 H24         30.0110    -5.0490   103.7930 h1         1 V00       0.031200
     55 H25         31.3820    -3.9480   103.9420 h1         1 V00       0.031200
     56 H26         28.8770    -3.7730   107.3300 ha         1 V00       0.110000
     57 H27         29.4070    -4.4960   109.6010 ha         1 V00       0.112000
     58 H28         31.5630    -3.8590   110.6680 ha         1 V00       0.113000
     59 H29         33.1970    -2.4690   109.4240 ha         1 V00       0.112000
     60 H30         33.8420    -1.2610   107.4740 ha         1 V00       0.119000
@<TRIPOS>BOND
     1     1     2 1   
     2     1    32 1   
     3     1    33 1   
     4     1    34 1   
     5     2     3 1   
     6     3     4 ar  
     7     3    30 ar  
     8     4     5 ar  
     9     4    35 1   
    10     5     6 1   
    11     5    24 ar  
    12     6     7 1   
    13     6     8 1   
    14     6    36 1   
    15     7    37 1   
    16     7    38 1   
    17     7    39 1   
    18     8     9 1   
    19     8    23 1   
    20     9    10 1   
    21     9    40 1   
    22     9    41 1   
    23    10    11 1   
    24    10    42 1   
    25    10    43 1   
    26    11    12 1   
    27    11    22 1   
    28    11    44 1   
    29    12    13 2   
    30    12    14 1   
    31    14    15 1   
    32    14    45 1   
    33    15    16 1   
    34    15    46 1   
    35    15    47 1   
    36    16    17 ar  
    37    16    21 ar  
    38    17    18 ar  
    39    17    48 1   
    40    18    19 ar  
    41    18    49 1   
    42    19    20 ar  
    43    19    50 1   
    44    20    21 ar  
    45    20    31 1   
    46    21    51 1   
    47    22    23 1   
    48    22    52 1   
    49    22    53 1   
    50    23    54 1   
    51    23    55 1   
    52    24    25 ar  
    53    24    29 ar  
    54    25    26 ar  
    55    25    56 1   
    56    26    27 ar  
    57    26    57 1   
    58    27    28 ar  
    59    27    58 1   
    60    28    29 ar  
    61    28    59 1   
    62    29    30 ar  
    63    30    60 1   
@<TRIPOS>SUBSTRUCTURE
     1 V00         1 TEMP              0 ****  ****    0 ROOT
