@<TRIPOS>MOLECULE
V01
   54    58     1     0     0
SMALL
bcc


@<TRIPOS>ATOM
      1 O3          17.3070    11.9740    21.9660 o          1 V01      -0.597500
      2 C4          14.2820    15.5780    13.4690 c3         1 V01       0.139300
      3 C5          13.5120    16.7760    13.9600 ca         1 V01      -0.076300
      4 C6          12.2010    16.9990    13.5590 ca         1 V01      -0.125500
      5 N1          12.0230    21.2770    15.7120 ns         1 V01      -0.552400
      6 C7          11.4980    18.1040    14.0120 ca         1 V01      -0.086500
      7 C8          12.1020    19.0180    14.8700 ca         1 V01      -0.156600
      8 N2          11.0100    24.9370    17.2630 nb         1 V01      -0.718000
      9 C9          11.2950    20.1830    15.3300 c          1 V01       0.698700
     10 C10         11.5770    22.4760    16.2290 ca         1 V01       0.577200
     11 C11         10.2500    22.7990    16.5140 ca         1 V01      -0.378600
     12 C12         10.0370    24.0590    17.0350 ca         1 V01       0.446200
     13 N3          12.5580    23.3470    16.4530 nb         1 V01      -0.776000
     14 C13         12.2280    24.5230    16.9550 ca         1 V01       0.675900
     15 C14         13.4150    18.7910    15.2860 ca         1 V01      -0.086500
     16 C15         14.1070    17.6800    14.8370 ca         1 V01      -0.125500
     17 N4          17.6460    12.2320    19.7430 ns         1 V01      -0.468100
     18 C20         16.9730    12.4460    20.8980 c          1 V01       0.684500
     19 C19         15.7200    13.2810    20.7370 c6         1 V01       0.049400
     20 O2          15.8220    14.2440    19.7060 os         1 V01      -0.301900
     21 C21         17.2210    12.7370    18.5190 ca         1 V01       0.032600
     22 C18         16.2780    13.7650    18.5240 ca         1 V01       0.067100
     23 C17         15.8410    14.3200    17.3370 ca         1 V01      -0.089000
     24 C22         17.7370    12.2870    17.3120 ca         1 V01      -0.156000
     25 C23         17.3260    12.8680    16.1240 ca         1 V01      -0.073000
     26 C16         16.3660    13.8730    16.1270 ca         1 V01      -0.142600
     27 C           16.0010    14.5220    14.8330 c          1 V01       0.692700
     28 O           16.8870    14.8660    14.0640 o          1 V01      -0.589100
     29 N           14.6850    14.7240    14.5730 n          1 V01      -0.454800
     30 C1          13.6160    14.1380    15.3300 cx         1 V01       0.039700
     31 C3          13.5900    12.6680    15.5840 cx         1 V01      -0.131400
     32 C2          12.6300    13.2690    14.6090 cx         1 V01      -0.131400
     33 O1          10.0810    20.1550    15.3450 o          1 V01      -0.567100
     34 H1          13.6730    15.0080    12.7650 h1         1 V01       0.072200
     35 H2          15.1750    15.9010    12.9350 h1         1 V01       0.072200
     36 H3          11.7180    16.3020    12.8850 ha         1 V01       0.141500
     37 H4          13.0230    21.2580    15.5720 hn         1 V01       0.340500
     38 H5          10.4770    18.2580    13.6890 ha         1 V01       0.146000
     39 H6           9.4280    22.1250    16.3460 ha         1 V01       0.182000
     40 H7           9.0280    24.3730    17.2790 h4         1 V01       0.026100
     41 H8          13.0430    25.2150    17.1310 h5         1 V01       0.049100
     42 H9          13.9100    19.4560    15.9810 ha         1 V01       0.146000
     43 H10         15.1240    17.5210    15.1750 ha         1 V01       0.141500
     44 H11         18.4510    11.6210    19.7670 hn         1 V01       0.334500
     45 H12         15.5270    13.8200    21.6630 h1         1 V01       0.085700
     46 H13         14.8770    12.6000    20.5560 h1         1 V01       0.085700
     47 H14         15.1140    15.1210    17.3760 ha         1 V01       0.154000
     48 H15         18.4720    11.4920    17.3070 ha         1 V01       0.143000
     49 H16         17.7480    12.5210    15.1900 ha         1 V01       0.153000
     50 H17         13.2000    14.7700    16.1080 h1         1 V01       0.086700
     51 H18         13.2300    12.3400    16.5500 hc         1 V01       0.079950
     52 H19         14.3980    12.0690    15.1840 hc         1 V01       0.079950
     53 H20         11.5880    13.3660    14.8830 hc         1 V01       0.079950
     54 H21         12.8020    13.0700    13.5580 hc         1 V01       0.079950
@<TRIPOS>BOND
     1     1    18 2   
     2     2     3 1   
     3     2    29 1   
     4     2    34 1   
     5     2    35 1   
     6     3     4 ar  
     7     3    16 ar  
     8     4     6 ar  
     9     4    36 1   
    10     5     9 1   
    11     5    10 1   
    12     5    37 1   
    13     6     7 ar  
    14     6    38 1   
    15     7     9 1   
    16     7    15 ar  
    17     8    12 ar  
    18     8    14 ar  
    19     9    33 2   
    20    10    11 ar  
    21    10    13 ar  
    22    11    12 ar  
    23    11    39 1   
    24    12    40 1   
    25    13    14 ar  
    26    14    41 1   
    27    15    16 ar  
    28    15    42 1   
    29    16    43 1   
    30    17    18 1   
    31    17    21 1   
    32    17    44 1   
    33    18    19 1   
    34    19    20 1   
    35    19    45 1   
    36    19    46 1   
    37    20    22 1   
    38    21    22 ar  
    39    21    24 ar  
    40    22    23 ar  
    41    23    26 ar  
    42    23    47 1   
    43    24    25 ar  
    44    24    48 1   
    45    25    26 ar  
    46    25    49 1   
    47    26    27 1   
    48    27    28 2   
    49    27    29 1   
    50    29    30 1   
    51    30    31 1   
    52    30    32 1   
    53    30    50 1   
    54    31    32 1   
    55    31    51 1   
    56    31    52 1   
    57    32    53 1   
    58    32    54 1   
@<TRIPOS>SUBSTRUCTURE
     1 V01         1 TEMP              0 ****  ****    0 ROOT
