@<TRIPOS>MOLECULE
V01
   54    58     1     0     0
SMALL
No Charge or Current Charge


@<TRIPOS>ATOM
      1 O3          18.0260    11.7020    21.9280 o          1 V01      -0.522000
      2 C4          14.5160    15.7130    13.5720 c3         1 V01       0.139300
      3 C5          13.6570    16.9300    13.9010 ca         1 V01      -0.076300
      4 C6          12.3420    17.0330    13.4150 ca         1 V01      -0.107500
      5 N1          11.7510    21.3650    15.6550 ns         1 V01      -0.318900
      6 C7          11.5530    18.1520    13.7310 ca         1 V01      -0.068500
      7 C8          12.0610    19.1940    14.5400 ca         1 V01      -0.156600
      8 N2          10.5310    25.0150    17.2420 nb         1 V01      -0.192000
      9 C9          11.1800    20.3870    14.8620 c          1 V01       0.631700
     10 C10         11.2400    22.5790    16.1550 ca         1 V01       0.248900
     11 C11          9.9070    23.0210    16.0540 ca         1 V01      -0.230000
     12 C12          9.5950    24.2680    16.6220 ca         1 V01       0.117900
     13 N3          12.1800    23.3180    16.7760 nb         1 V01      -0.250000
     14 C13         11.7780    24.5010    17.2880 ca         1 V01       0.149900
     15 C14         13.3890    19.0820    15.0240 ca         1 V01      -0.068500
     16 C15         14.1740    17.9610    14.7050 ca         1 V01      -0.107500
     17 N4          17.7350    11.5490    19.6610 ns         1 V01      -0.142000
     18 C20         17.3800    11.9730    20.9220 c          1 V01       0.542000
     19 C19         16.1400    12.8900    20.9160 c6         1 V01       0.072600
     20 O2          16.1720    13.8340    19.8080 os         1 V01      -0.325100
     21 C21         17.3110    12.1720    18.4670 ca         1 V01      -0.060000
     22 C18         16.5320    13.3440    18.5650 ca         1 V01       0.067100
     23 C17         16.1520    14.0360    17.4050 ca         1 V01      -0.071000
     24 C22         17.7040    11.6920    17.2090 ca         1 V01      -0.138000
     25 C23         17.3070    12.3770    16.0460 ca         1 V01      -0.055000
     26 C16         16.5100    13.5420    16.1280 ca         1 V01      -0.142600
     27 C           16.1230    14.2610    14.8520 c          1 V01       0.625700
     28 O           16.9260    14.3330    13.9280 o          1 V01      -0.589100
     29 N           14.8450    14.8690    14.7510 n          1 V01      -0.387800
     30 C1          13.7170    14.5700    15.6400 cx         1 V01       0.039700
     31 C3          13.3150    13.1650    16.0330 cx         1 V01      -0.131400
     32 C2          12.4180    13.9800    15.1380 cx         1 V01      -0.131400
     33 O1          10.0350    20.4690    14.4350 o          1 V01      -0.567100
     34 H1          14.0060    15.0880    12.8280 h1         1 V01       0.072200
     35 H2          15.4390    16.0780    13.1040 h1         1 V01       0.072200
     36 H3          11.9260    16.2430    12.7940 ha         1 V01       0.123500
     37 H4          12.7070    21.1860    15.9250 hn         1 V01       0.174000
     38 H5          10.5370    18.2030    13.3420 ha         1 V01       0.128000
     39 H6           9.1330    22.4390    15.5670 ha         1 V01       0.164000
     40 H7           8.5850    24.6740    16.5830 h4         1 V01       0.026100
     41 H8          12.5360    25.1000    17.7890 h5         1 V01       0.049100
     42 H9          13.8300    19.8530    15.6510 ha         1 V01       0.128000
     43 H10         15.1890    17.8910    15.0900 ha         1 V01       0.123500
     44 H11         18.5080    10.9000    19.5920 hn         1 V01       0.168000
     45 H12         16.0900    13.4300    21.8700 h1         1 V01       0.085700
     46 H13         15.2580    12.2440    20.8150 h1         1 V01       0.085700
     47 H14         15.5940    14.9620    17.5090 ha         1 V01       0.136000
     48 H15         18.3200    10.7990    17.1280 ha         1 V01       0.125000
     49 H16         17.6160    11.9960    15.0740 ha         1 V01       0.135000
     50 H17         13.6460    15.3600    16.3880 h1         1 V01       0.086700
     51 H18         13.0000    13.0030    17.0610 hc         1 V01       0.079950
     52 H19         13.8530    12.3340    15.5850 hc         1 V01       0.079950
     53 H20         11.4940    14.3700    15.5590 hc         1 V01       0.079950
     54 H21         12.3550    13.6910    14.0920 hc         1 V01       0.079950
@<TRIPOS>BOND
     1     1    18 2   
     2     2     3 1   
     3     2    29 1   
     4     2    34 1   
     5     2    35 1   
     6     3     4 ar  
     7     3    16 ar  
     8     4     6 ar  
     9     4    36 1   
    10     5     9 1   
    11     5    10 1   
    12     5    37 1   
    13     6     7 ar  
    14     6    38 1   
    15     7     9 1   
    16     7    15 ar  
    17     8    12 ar  
    18     8    14 ar  
    19     9    33 2   
    20    10    11 ar  
    21    10    13 ar  
    22    11    12 ar  
    23    11    39 1   
    24    12    40 1   
    25    13    14 ar  
    26    14    41 1   
    27    15    16 ar  
    28    15    42 1   
    29    16    43 1   
    30    17    18 1   
    31    17    21 1   
    32    17    44 1   
    33    18    19 1   
    34    19    20 1   
    35    19    45 1   
    36    19    46 1   
    37    20    22 1   
    38    21    22 ar  
    39    21    24 ar  
    40    22    23 ar  
    41    23    26 ar  
    42    23    47 1   
    43    24    25 ar  
    44    24    48 1   
    45    25    26 ar  
    46    25    49 1   
    47    26    27 1   
    48    27    28 2   
    49    27    29 1   
    50    29    30 1   
    51    30    31 1   
    52    30    32 1   
    53    30    50 1   
    54    31    32 1   
    55    31    51 1   
    56    31    52 1   
    57    32    53 1   
    58    32    54 1   
@<TRIPOS>SUBSTRUCTURE
     1 V01         1 TEMP              0 ****  ****    0 ROOT
