@<TRIPOS>MOLECULE
V02
   51    53     1     0     0
SMALL
abcg2


@<TRIPOS>ATOM
      1 CAA         -3.6350    -3.7690    -0.0460 c3         1 V02      -0.087100
      2 CAU         -2.4870    -3.6920     0.9600 c3         1 V02      -0.031100
      3 CAV         -1.2390    -3.1280     0.3380 ca         1 V02      -0.081300
      4 CAK         -0.3330    -3.9580    -0.3210 ca         1 V02      -0.103000
      5 CAQ         -0.9940    -1.7620     0.3580 ca         1 V02      -0.095000
      6 CAY          0.1280    -1.2010    -0.2570 ca         1 V02      -0.078300
      7 CAP          1.0110    -2.0470    -0.9130 ca         1 V02      -0.100000
      8 CAJ          0.7810    -3.4180    -0.9410 ca         1 V02      -0.111000
      9 CAZ          0.3120     0.3150    -0.1610 c3         1 V02       0.265900
     10 CAN          0.8590     2.1260     1.5100 ca         1 V02      -0.095500
     11 CAH          1.2410     2.5700     2.7640 ca         1 V02      -0.117500
     12 CAE          1.4870     1.6570     3.7850 ca         1 V02      -0.104000
     13 CAI          1.3480     0.3040     3.5300 ca         1 V02      -0.117500
     14 CAO          0.9570    -0.1390     2.2700 ca         1 V02      -0.095500
     15 CAX          0.6970     0.7630     1.2440 ca         1 V02      -0.092300
     16 SAT          1.6160     0.9520    -1.3120 ss         1 V02      -0.449000
     17 CAS          3.1670     0.5790    -0.4410 c3         1 V02       0.061600
     18 CAR          4.3020     0.5770    -1.4560 c3         1 V02       0.157800
     19 NAB          5.5680     0.3810    -0.7690 n8         1 V02      -0.997200
     20 CAG         -2.5020     1.3470    -2.4980 ca         1 V02      -0.076000
     21 CAM         -1.3130     0.8200    -2.0190 ca         1 V02      -0.128000
     22 CAW         -0.9830     0.9540    -0.6710 ca         1 V02      -0.024300
     23 CAL         -1.8750     1.5920     0.1810 ca         1 V02      -0.194000
     24 CAF         -3.0740     2.1130    -0.3050 ca         1 V02       0.134100
     25 CAD         -3.3890     1.9980    -1.6540 ca         1 V02      -0.142000
     26 OAC         -3.9580     2.7390     0.4980 oh         1 V02      -0.536100
     27 HAA1        -3.8930    -2.7790    -0.4220 hc         1 V02       0.036033
     28 HAA2        -3.3650    -4.3910    -0.9010 hc         1 V02       0.036033
     29 HAA3        -4.5280    -4.1980     0.4100 hc         1 V02       0.036033
     30 HAU1        -2.7890    -3.0750     1.8090 hc         1 V02       0.044700
     31 HAU2        -2.2830    -4.6890     1.3560 hc         1 V02       0.044700
     32 HAQ         -1.7000    -1.1160     0.8680 ha         1 V02       0.118000
     33 HAK         -0.5050    -5.0280    -0.3500 ha         1 V02       0.112000
     34 HAJ          1.4810    -4.0640    -1.4560 ha         1 V02       0.114000
     35 HAP          1.8770    -1.6500    -1.4230 ha         1 V02       0.127000
     36 HAN          0.6950     2.8490     0.7200 ha         1 V02       0.127500
     37 HAO          0.8640    -1.2030     2.1020 ha         1 V02       0.127500
     38 HAH          1.3540     3.6310     2.9440 ha         1 V02       0.114500
     39 HAE          1.7910     2.0030     4.7650 ha         1 V02       0.114000
     40 HAI          1.5460    -0.4200     4.3090 ha         1 V02       0.114500
     41 HAS1         3.3400     1.3330     0.3290 h1         1 V02       0.072200
     42 HAS2         3.1050    -0.3930     0.0490 h1         1 V02       0.072200
     43 HAR1         4.1530    -0.2500    -2.1540 h1         1 V02       0.038700
     44 HAR2         4.2610     1.5000    -2.0530 h1         1 V02       0.038700
     45 HAB1         6.3000     0.2380    -1.4530 hn         1 V02       0.394500
     46 HAB2         5.8180     1.2280    -0.2740 hn         1 V02       0.394500
     47 HAL         -1.6560     1.6850     1.2380 ha         1 V02       0.121000
     48 HAM         -0.6520     0.2960    -2.6980 ha         1 V02       0.131000
     49 HAD         -4.3170     2.4080    -2.0320 ha         1 V02       0.128000
     50 HAC         -3.6270     2.7690     1.4030 ho         1 V02       0.464000
     51 HAG         -2.7470     1.2460    -3.5480 ha         1 V02       0.116000
@<TRIPOS>BOND
     1     1     2 1   
     2     1    27 1   
     3     1    28 1   
     4     1    29 1   
     5     2     3 1   
     6     2    30 1   
     7     2    31 1   
     8     3     4 ar  
     9     3     5 ar  
    10     4     8 ar  
    11     4    33 1   
    12     5     6 ar  
    13     5    32 1   
    14     6     7 ar  
    15     6     9 1   
    16     7     8 ar  
    17     7    35 1   
    18     8    34 1   
    19     9    15 1   
    20     9    16 1   
    21     9    22 1   
    22    10    11 ar  
    23    10    15 ar  
    24    10    36 1   
    25    11    12 ar  
    26    11    38 1   
    27    12    13 ar  
    28    12    39 1   
    29    13    14 ar  
    30    13    40 1   
    31    14    15 ar  
    32    14    37 1   
    33    16    17 1   
    34    17    18 1   
    35    17    41 1   
    36    17    42 1   
    37    18    19 1   
    38    18    43 1   
    39    18    44 1   
    40    19    45 1   
    41    19    46 1   
    42    20    21 ar  
    43    20    25 ar  
    44    20    51 1   
    45    21    22 ar  
    46    21    48 1   
    47    22    23 ar  
    48    23    24 ar  
    49    23    47 1   
    50    24    25 ar  
    51    24    26 1   
    52    25    49 1   
    53    26    50 1   
@<TRIPOS>SUBSTRUCTURE
     1 V02         1 TEMP              0 ****  ****    0 ROOT
