@<TRIPOS>MOLECULE
V02
   51    53     1     0     0
SMALL
No Charge or Current Charge


@<TRIPOS>ATOM
      1 CAA         -3.5760    -3.5230     0.7150 c3         1 V02      -0.087100
      2 CAU         -2.1440    -3.8100     1.2040 c3         1 V02      -0.031100
      3 CAV         -1.0900    -3.1680     0.3100 ca         1 V02      -0.081300
      4 CAK         -0.3590    -3.9450    -0.6030 ca         1 V02      -0.103000
      5 CAQ         -0.8500    -1.7840     0.3890 ca         1 V02      -0.095000
      6 CAY          0.1250    -1.1550    -0.4210 ca         1 V02      -0.078300
      7 CAP          0.8320    -1.9560    -1.3510 ca         1 V02      -0.100000
      8 CAJ          0.5960    -3.3380    -1.4320 ca         1 V02      -0.111000
      9 CAZ          0.3120     0.3820    -0.3070 c3         1 V02       0.265900
     10 CAN          0.5820     2.2320     1.4450 ca         1 V02      -0.095500
     11 CAH          0.9010     2.6990     2.7320 ca         1 V02      -0.117500
     12 CAE          1.3010     1.7960     3.7290 ca         1 V02      -0.104000
     13 CAI          1.3930     0.4280     3.4320 ca         1 V02      -0.117500
     14 CAO          1.0740    -0.0410     2.1460 ca         1 V02      -0.095500
     15 CAX          0.6390     0.8530     1.1350 ca         1 V02      -0.092300
     16 SAT          1.7450     1.0130    -1.3360 ss         1 V02      -0.449000
     17 CAS          3.2010     0.3390    -0.3980 c3         1 V02       0.061600
     18 CAR          4.4920     0.4460    -1.2400 c3         1 V02       0.157800
     19 NAB          5.6790    -0.0800    -0.5270 n8         1 V02      -0.997200
     20 CAG         -2.4180     1.6750    -2.7350 ca         1 V02      -0.076000
     21 CAM         -1.2190     1.1400    -2.2340 ca         1 V02      -0.128000
     22 CAW         -1.0040     1.0080    -0.8420 ca         1 V02      -0.024300
     23 CAL         -2.0550     1.3860     0.0320 ca         1 V02      -0.194000
     24 CAF         -3.2510     1.9220    -0.4700 ca         1 V02       0.134100
     25 CAD         -3.4320     2.0720    -1.8510 ca         1 V02      -0.142000
     26 OAC         -4.2470     2.2920     0.3830 oh         1 V02      -0.536100
     27 HAA1        -3.7750    -2.4450     0.7070 hc         1 V02       0.036033
     28 HAA2        -3.7210    -3.9090    -0.3010 hc         1 V02       0.036033
     29 HAA3        -4.3090    -4.0030     1.3740 hc         1 V02       0.036033
     30 HAU1        -2.0380    -3.4410     2.2310 hc         1 V02       0.044700
     31 HAU2        -1.9960    -4.8960     1.2530 hc         1 V02       0.044700
     32 HAQ         -1.4260    -1.1900     1.0950 ha         1 V02       0.118000
     33 HAK         -0.5360    -5.0160    -0.6790 ha         1 V02       0.112000
     34 HAJ          1.1500    -3.9410    -2.1480 ha         1 V02       0.114000
     35 HAP          1.5640    -1.5280    -2.0290 ha         1 V02       0.127000
     36 HAN          0.2890     2.9500     0.6810 ha         1 V02       0.127500
     37 HAO          1.1850    -1.1030     1.9450 ha         1 V02       0.127500
     38 HAH          0.8430     3.7620     2.9540 ha         1 V02       0.114500
     39 HAE          1.5510     2.1570     4.7250 ha         1 V02       0.114000
     40 HAI          1.7200    -0.2710     4.1980 ha         1 V02       0.114500
     41 HAS1         3.3210     0.9040     0.5350 h1         1 V02       0.072200
     42 HAS2         3.0190    -0.7130    -0.1440 h1         1 V02       0.072200
     43 HAR1         4.3620    -0.1210    -2.1720 h1         1 V02       0.038700
     44 HAR2         4.6720     1.4990    -1.5010 h1         1 V02       0.038700
     45 HAB1         6.5090     0.0490    -1.1200 hn         1 V02       0.394500
     46 HAB2         5.8730     0.5160     0.2870 hn         1 V02       0.394500
     47 HAL         -1.9450     1.2580     1.1050 ha         1 V02       0.121000
     48 HAM         -0.4590     0.8180    -2.9420 ha         1 V02       0.131000
     49 HAD         -4.3610     2.4840    -2.2370 ha         1 V02       0.128000
     50 HAC         -3.9470     2.1240     1.3010 ho         1 V02       0.464000
     51 HAG         -2.5620     1.7750    -3.8090 ha         1 V02       0.116000
@<TRIPOS>BOND
     1     1     2 1   
     2     1    27 1   
     3     1    28 1   
     4     1    29 1   
     5     2     3 1   
     6     2    30 1   
     7     2    31 1   
     8     3     4 ar  
     9     3     5 ar  
    10     4     8 ar  
    11     4    33 1   
    12     5     6 ar  
    13     5    32 1   
    14     6     7 ar  
    15     6     9 1   
    16     7     8 ar  
    17     7    35 1   
    18     8    34 1   
    19     9    15 1   
    20     9    16 1   
    21     9    22 1   
    22    10    11 ar  
    23    10    15 ar  
    24    10    36 1   
    25    11    12 ar  
    26    11    38 1   
    27    12    13 ar  
    28    12    39 1   
    29    13    14 ar  
    30    13    40 1   
    31    14    15 ar  
    32    14    37 1   
    33    16    17 1   
    34    17    18 1   
    35    17    41 1   
    36    17    42 1   
    37    18    19 1   
    38    18    43 1   
    39    18    44 1   
    40    19    45 1   
    41    19    46 1   
    42    20    21 ar  
    43    20    25 ar  
    44    20    51 1   
    45    21    22 ar  
    46    21    48 1   
    47    22    23 ar  
    48    23    24 ar  
    49    23    47 1   
    50    24    25 ar  
    51    24    26 1   
    52    25    49 1   
    53    26    50 1   
@<TRIPOS>SUBSTRUCTURE
     1 V02         1 TEMP              0 ****  ****    0 ROOT
