@<TRIPOS>MOLECULE
V03
   28    28     1     0     0
SMALL
No Charge or Current Charge


@<TRIPOS>ATOM
      1 C7          -4.6570    14.4540   -33.1530 c3         1 V03       0.228800
      2 C8          -5.2850    15.6090   -33.9720 c3         1 V03      -0.079400
      3 C9          -6.7780    15.8830   -33.6660 c3         1 V03       0.158600
      4 O1          -6.9570    16.3710   -32.3290 oh         1 V03      -0.671000
      5 C1          -0.8940    13.0240   -34.8220 ca         1 V03       0.135100
      6 C5          -3.1890    12.6080   -34.1080 ca         1 V03      -0.061000
      7 C6          -1.9760    12.1480   -34.6500 ca         1 V03      -0.172500
      8 C4          -3.3330    13.9590   -33.7310 ca         1 V03      -0.125300
      9 C3          -2.2430    14.8380   -33.9020 ca         1 V03      -0.061000
     10 C2          -1.0300    14.3770   -34.4450 ca         1 V03      -0.172500
     11 N           -4.4920    14.8410   -31.7490 n8         1 V03      -1.010200
     12 C            1.4370    13.3290   -35.5770 c3         1 V03       0.149900
     13 H1          -5.3750    13.6220   -33.1700 h1         1 V03       0.011700
     14 H2          -5.2070    15.3540   -35.0350 hc         1 V03       0.061200
     15 H3          -4.7070    16.5300   -33.8320 hc         1 V03       0.061200
     16 H4          -7.1510    16.6250   -34.3850 h1         1 V03       0.020700
     17 H5          -7.3530    14.9600   -33.8170 h1         1 V03       0.020700
     18 H6          -7.9070    16.6070   -32.2370 ho         1 V03       0.439000
     19 H7          -4.0180    11.9140   -33.9830 ha         1 V03       0.119500
     20 H8          -1.8760    11.1050   -34.9390 ha         1 V03       0.120500
     21 H9          -2.3350    15.8820   -33.6100 ha         1 V03       0.119500
     22 H10         -0.2120    15.0820   -34.5620 ha         1 V03       0.120500
     23 H11         -5.3630    15.3220   -31.4820 hn         1 V03       0.407500
     24 H12         -4.4860    13.9930   -31.1740 hn         1 V03       0.407500
     25 H14          2.2450    12.7270   -36.0110 h1         1 V03       0.041033
     26 H15          1.2150    14.1500   -36.2700 h1         1 V03       0.041033
     27 H16          1.7980    13.7520   -34.6310 h1         1 V03       0.041033
     28 O            0.2700    12.5140   -35.3600 os         1 V03      -0.352100
@<TRIPOS>BOND
     1     1     2 1   
     2     1     8 1   
     3     1    11 1   
     4     1    13 1   
     5     2     3 1   
     6     2    14 1   
     7     2    15 1   
     8     3     4 1   
     9     3    16 1   
    10     3    17 1   
    11     4    18 1   
    12     5     7 ar  
    13     5    10 ar  
    14     5    28 1   
    15     6     7 ar  
    16     6     8 ar  
    17     6    19 1   
    18     7    20 1   
    19     8     9 ar  
    20     9    10 ar  
    21     9    21 1   
    22    10    22 1   
    23    11    23 1   
    24    11    24 1   
    25    12    25 1   
    26    12    26 1   
    27    12    27 1   
    28    12    28 1   
@<TRIPOS>SUBSTRUCTURE
     1 V03         1 TEMP              0 ****  ****    0 ROOT
