@<TRIPOS>MOLECULE
V03
   28    28     1     0     0
SMALL
abcg2


@<TRIPOS>ATOM
      1 C7          -4.6310    14.4600   -33.0860 c3         1 V03       0.228800
      2 C8          -5.3290    15.4400   -34.0430 c3         1 V03      -0.079400
      3 C9          -6.7800    15.7410   -33.7120 c3         1 V03       0.158600
      4 O1          -6.8610    16.5240   -32.5100 oh         1 V03      -0.671000
      5 C1          -0.9450    13.0780   -34.8830 ca         1 V03       0.135100
      6 C5          -3.2500    12.7120   -34.2780 ca         1 V03      -0.061000
      7 C6          -2.0810    12.2650   -34.8740 ca         1 V03      -0.172500
      8 C4          -3.3260    13.9710   -33.6780 ca         1 V03      -0.125300
      9 C3          -2.1840    14.7670   -33.6920 ca         1 V03      -0.061000
     10 C2          -0.9990    14.3370   -34.2840 ca         1 V03      -0.172500
     11 N           -4.3970    15.1030   -31.7830 n8         1 V03      -1.010200
     12 C            1.3490    13.3490   -35.5110 c3         1 V03       0.149900
     13 H1          -5.2900    13.5850   -32.9950 h1         1 V03       0.011700
     14 H2          -5.3120    15.0060   -35.0460 hc         1 V03       0.061200
     15 H3          -4.7570    16.3730   -34.0870 hc         1 V03       0.061200
     16 H4          -7.2360    16.2910   -34.5420 h1         1 V03       0.020700
     17 H5          -7.3330    14.8030   -33.5850 h1         1 V03       0.020700
     18 H6          -7.7920    16.6410   -32.2880 ho         1 V03       0.439000
     19 H7          -4.1220    12.0680   -34.2760 ha         1 V03       0.119500
     20 H8          -2.0290    11.2860   -35.3330 ha         1 V03       0.120500
     21 H9          -2.2140    15.7440   -33.2250 ha         1 V03       0.119500
     22 H10         -0.1350    14.9850   -34.2720 ha         1 V03       0.120500
     23 H11         -5.2750    15.4730   -31.4340 hn         1 V03       0.407500
     24 H12         -4.0680    14.4110   -31.1170 hn         1 V03       0.407500
     25 H14          2.0940    12.7530   -36.0320 h1         1 V03       0.041033
     26 H15          1.1890    14.2880   -36.0480 h1         1 V03       0.041033
     27 H16          1.6950    13.5650   -34.4970 h1         1 V03       0.041033
     28 O            0.1610    12.5600   -35.4900 os         1 V03      -0.352100
@<TRIPOS>BOND
     1     1     2 1   
     2     1     8 1   
     3     1    11 1   
     4     1    13 1   
     5     2     3 1   
     6     2    14 1   
     7     2    15 1   
     8     3     4 1   
     9     3    16 1   
    10     3    17 1   
    11     4    18 1   
    12     5     7 ar  
    13     5    10 ar  
    14     5    28 1   
    15     6     7 ar  
    16     6     8 ar  
    17     6    19 1   
    18     7    20 1   
    19     8     9 ar  
    20     9    10 ar  
    21     9    21 1   
    22    10    22 1   
    23    11    23 1   
    24    11    24 1   
    25    12    25 1   
    26    12    26 1   
    27    12    27 1   
    28    12    28 1   
@<TRIPOS>SUBSTRUCTURE
     1 V03         1 TEMP              0 ****  ****    0 ROOT
