@<TRIPOS>MOLECULE
V04
   39    41     1     0     0
SMALL
bcc


@<TRIPOS>ATOM
      1 C1          -2.9360     0.6100     0.1740 ca         1 V04      -0.267600
      2 F1           0.4550     0.9950    -3.0370 f          1 V04      -0.136900
      3 I1           3.5400    -2.4940    -0.3700 i          1 V04      -0.163900
      4 N1          -4.3210     4.3750     0.9420 na         1 V04      -0.007100
      5 O1          -2.2760    -1.0040    -1.4570 o          1 V04      -0.559100
      6 C2          -4.1440     0.7140     0.9050 ca         1 V04      -0.035000
      7 N2          -3.3810     5.1550     0.4010 nc         1 V04      -0.516100
      8 O2          -2.0120    -2.9080     0.4380 os         1 V04      -0.188900
      9 C3          -4.7280     1.9130     1.2280 ca         1 V04      -0.194000
     10 O3          -1.7900    -5.6430     1.1120 oh         1 V04      -0.591800
     11 C4          -2.2520     1.7570    -0.2250 ca         1 V04       0.312600
     12 N4          -2.4550    -1.6530     0.7020 ns         1 V04      -0.456400
     13 C5          -2.8340     2.9980     0.1000 ca         1 V04      -0.298900
     14 C6          -4.0510     3.0600     0.7970 ca         1 V04       0.008800
     15 C7          -2.4770     4.3570    -0.1060 cd         1 V04       0.365800
     16 C8          -0.0490     0.8060    -0.7560 ca         1 V04       0.141600
     17 C9           0.2530     0.2170     0.4690 ca         1 V04      -0.152000
     18 C10          1.2600    -0.7290     0.5840 ca         1 V04      -0.080000
     19 C11          2.0030    -1.0730    -0.5340 ca         1 V04       0.062900
     20 C12          1.7490    -0.4850    -1.7660 ca         1 V04      -0.113000
     21 C13          0.7220     0.4300    -1.8510 ca         1 V04       0.114900
     22 C14         -2.5070    -0.7420    -0.2910 c          1 V04       0.693700
     23 C15         -3.0990    -3.8250     0.3070 c3         1 V04       0.107400
     24 C16         -2.5310    -5.1860     0.0050 c3         1 V04       0.137400
     25 H2          -4.6490    -0.2000     1.1900 ha         1 V04       0.135000
     26 H3          -5.6590     1.9620     1.7750 ha         1 V04       0.145000
     27 HN3         -0.8470     2.5580    -1.4660 hn         1 V04       0.455800
     28 HO3         -1.4330    -6.5080     0.8950 ho         1 V04       0.405000
     29 HN4         -2.4480    -1.3920     1.6790 hn         1 V04       0.336500
     30 H7          -1.6070     4.7640    -0.5990 h4         1 V04       0.049800
     31 H9          -0.3000     0.5090     1.3520 ha         1 V04       0.142000
     32 H10          1.4610    -1.1700     1.5500 ha         1 V04       0.151000
     33 H12          2.3140    -0.7350    -2.6530 ha         1 V04       0.163000
     34 H15         -3.6910    -3.8470     1.2290 h1         1 V04       0.044700
     35 H15A        -3.7560    -3.5260    -0.5140 h1         1 V04       0.044700
     36 H16         -1.9200    -5.1320    -0.9050 h1         1 V04       0.031700
     37 H16A        -3.3810    -5.8420    -0.2230 h1         1 V04       0.031700
     38 HN1         -5.1150     4.7930     1.3990 hn         1 V04       0.328700
     39 N3          -1.0590     1.7460    -0.9090 nu         1 V04      -0.647000
@<TRIPOS>BOND
     1     1     6 ar  
     2     1    11 ar  
     3     1    22 1   
     4     2    21 1   
     5     3    19 1   
     6     4     7 1   
     7     4    14 1   
     8     4    38 1   
     9     5    22 2   
    10     6     9 ar  
    11     6    25 1   
    12     7    15 2   
    13     8    12 1   
    14     8    23 1   
    15     9    14 ar  
    16     9    26 1   
    17    10    24 1   
    18    10    28 1   
    19    11    13 ar  
    20    11    39 1   
    21    12    22 1   
    22    12    29 1   
    23    13    14 ar  
    24    13    15 1   
    25    15    30 1   
    26    16    17 ar  
    27    16    21 ar  
    28    16    39 1   
    29    17    18 ar  
    30    17    31 1   
    31    18    19 ar  
    32    18    32 1   
    33    19    20 ar  
    34    20    21 ar  
    35    20    33 1   
    36    23    24 1   
    37    23    34 1   
    38    23    35 1   
    39    24    36 1   
    40    24    37 1   
    41    27    39 1   
@<TRIPOS>SUBSTRUCTURE
     1 V04         1 TEMP              0 ****  ****    0 ROOT
