@<TRIPOS>MOLECULE
V04
   39    41     1     0     0
SMALL
No Charge or Current Charge


@<TRIPOS>ATOM
      1 C1          -3.0280     0.5200     0.2440 ca         1 V04      -0.267600
      2 F1           0.6630     1.3390    -3.1520 f          1 V04      -0.172000
      3 I1           4.2610    -1.6990    -0.3490 i          1 V04      -0.301000
      4 N1          -4.1570     4.4460     0.9830 na         1 V04      -0.057400
      5 O1          -2.2230    -1.2020    -1.2300 o          1 V04      -0.559100
      6 C2          -4.1670     0.7130     1.0800 ca         1 V04      -0.017000
      7 N2          -3.1770     5.1720     0.2810 nc         1 V04      -0.516100
      8 O2          -2.3080    -3.1520     0.6780 os         1 V04      -0.212100
      9 C3          -4.6290     2.0090     1.3860 ca         1 V04      -0.176000
     10 O3          -2.3000    -6.0350     1.2580 oh         1 V04      -0.654000
     11 C4          -2.3450     1.6540    -0.2670 ca         1 V04       0.451000
     12 N4          -2.8010    -1.8170     0.8890 ns         1 V04      -0.389400
     13 C5          -2.8550     2.9120     0.0480 ca         1 V04      -0.298900
     14 C6          -3.9400     3.0900     0.8370 ca         1 V04       0.008800
     15 C7          -2.3920     4.2360    -0.2800 cd         1 V04       0.365800
     16 C8           0.0150     0.8700    -0.8820 ca         1 V04       0.280000
     17 C9           0.3370     0.2680     0.3510 ca         1 V04      -0.134000
     18 C10          1.5330    -0.4590     0.4990 ca         1 V04      -0.062000
     19 C11          2.4220    -0.5800    -0.5820 ca         1 V04       0.200000
     20 C12          2.1250     0.0280    -1.8100 ca         1 V04      -0.095000
     21 C13          0.9310     0.7530    -1.9590 ca         1 V04       0.150000
     22 C14         -2.6140    -0.8800    -0.1150 c          1 V04       0.626700
     23 C15         -3.3610    -4.0420     0.2600 c3         1 V04       0.130600
     24 C16         -2.7620    -5.4500     0.0260 c3         1 V04       0.160600
     25 H2          -4.7210    -0.1380     1.4720 ha         1 V04       0.117000
     26 H3          -5.5000     2.1590     2.0210 ha         1 V04       0.127000
     27 HN3         -1.1940     2.2150    -1.8330 hn         1 V04       0.511000
     28 HO3         -1.9090    -6.9080     1.0320 ho         1 V04       0.444000
     29 HN4         -3.0480    -1.5630     1.8390 hn         1 V04       0.336500
     30 H7          -1.5450     4.5470    -0.8780 h4         1 V04       0.049800
     31 H9          -0.3340     0.3650     1.1990 ha         1 V04       0.124000
     32 H10          1.7750    -0.9260     1.4500 ha         1 V04       0.133000
     33 H12          2.8160    -0.0600    -2.6420 ha         1 V04       0.145000
     34 H15         -4.1510    -4.0990     1.0200 h1         1 V04       0.044700
     35 H15A        -3.8110    -3.6880    -0.6760 h1         1 V04       0.044700
     36 H16         -1.9380    -5.3730    -0.6960 h1         1 V04       0.031700
     37 H16A        -3.5350    -6.0870    -0.4240 h1         1 V04       0.031700
     38 HN1         -4.9010     4.8930     1.5160 hn         1 V04       0.379000
     39 N3          -1.1810     1.5950    -1.0230 nu         1 V04      -0.979000
@<TRIPOS>BOND
     1     1     6 ar  
     2     1    11 ar  
     3     1    22 1   
     4     2    21 1   
     5     3    19 1   
     6     4     7 1   
     7     4    14 1   
     8     4    38 1   
     9     5    22 2   
    10     6     9 ar  
    11     6    25 1   
    12     7    15 2   
    13     8    12 1   
    14     8    23 1   
    15     9    14 ar  
    16     9    26 1   
    17    10    24 1   
    18    10    28 1   
    19    11    13 ar  
    20    11    39 1   
    21    12    22 1   
    22    12    29 1   
    23    13    14 ar  
    24    13    15 1   
    25    15    30 1   
    26    16    17 ar  
    27    16    21 ar  
    28    16    39 1   
    29    17    18 ar  
    30    17    31 1   
    31    18    19 ar  
    32    18    32 1   
    33    19    20 ar  
    34    20    21 ar  
    35    20    33 1   
    36    23    24 1   
    37    23    34 1   
    38    23    35 1   
    39    24    36 1   
    40    24    37 1   
    41    27    39 1   
@<TRIPOS>SUBSTRUCTURE
     1 V04         1 TEMP              0 ****  ****    0 ROOT
