@<TRIPOS>MOLECULE
V05
   33    35     1     0     0
SMALL
No Charge or Current Charge


@<TRIPOS>ATOM
      1 C4           4.0590     4.3670    29.4740 ca         1 V05       0.229000
      2 C5           4.0050     3.1810    28.7220 ca         1 V05      -0.200300
      3 C6           3.5670     1.8660    29.3740 c3         1 V05       0.152900
      4 C11          9.3080    -1.5310    29.2720 ca         1 V05       0.107400
      5 C7           6.3520     0.1810    30.5920 cc         1 V05       0.436000
      6 C8           7.6260    -0.5700    30.5420 ca         1 V05       0.106000
      7 C9           9.3570    -1.6200    31.6680 ca         1 V05       0.107400
      8 C10          9.9600    -1.9450    30.4440 ca         1 V05      -0.212000
      9 C12          4.3800     3.2270    27.3670 ca         1 V05       0.229000
     10 C13          4.7920     4.4310    26.7720 ca         1 V05      -0.144500
     11 N1           5.5640     6.9670    25.5580 ns         1 V05      -0.389400
     12 N2           4.6460     1.2020    30.1250 na         1 V05       0.235600
     13 C3           4.4710     5.5730    28.8870 ca         1 V05      -0.144500
     14 N3           4.6790     1.1520    31.4930 nd         1 V05      -0.177800
     15 O1           5.4030     7.9690    27.6030 o          1 V05      -0.553100
     16 C1           5.2840     6.9570    26.9220 c          1 V05       0.616700
     17 O2           5.7530     8.2160    24.8440 oh         1 V05      -0.409100
     18 C2           4.8420     5.6310    27.5240 ca         1 V05      -0.083600
     19 F1           3.7140     4.3580    30.7800 f          1 V05      -0.154500
     20 N4           5.7670     0.5000    31.7860 nc         1 V05      -0.334000
     21 N5           8.1960    -0.9360    31.7210 nb         1 V05      -0.139500
     22 N6           8.1470    -0.8470    29.3180 nb         1 V05      -0.139500
     23 N7           5.7020     0.5880    29.5220 nd         1 V05      -0.472800
     24 F2           4.3520     2.1040    26.6150 f          1 V05      -0.154500
     25 H1           2.7320     2.0550    30.0600 h1         1 V05       0.096700
     26 H2           3.2000     1.1650    28.6150 h1         1 V05       0.096700
     27 H4           9.8040    -1.9080    32.6180 h4         1 V05       0.030600
     28 H5          10.8960    -2.4960    30.4040 ha         1 V05       0.138000
     29 H6           5.0780     4.4040    25.7240 ha         1 V05       0.153500
     30 H7           5.3010     6.1660    24.9890 hn         1 V05       0.347500
     31 H8           4.4970     6.4690    29.5030 ha         1 V05       0.153500
     32 H9           6.5920     8.0750    24.3450 ho         1 V05       0.442000
     33 H3           9.7170    -1.7470    28.2860 h4         1 V05       0.030600
@<TRIPOS>BOND
     1     1     2 ar  
     2     1    13 ar  
     3     1    19 1   
     4     2     3 1   
     5     2     9 ar  
     6     3    12 1   
     7     3    25 1   
     8     3    26 1   
     9     4     8 ar  
    10     4    22 ar  
    11     4    33 1   
    12     5     6 1   
    13     5    20 1   
    14     5    23 2   
    15     6    21 ar  
    16     6    22 ar  
    17     7     8 ar  
    18     7    21 ar  
    19     7    27 1   
    20     8    28 1   
    21     9    10 ar  
    22     9    24 1   
    23    10    18 ar  
    24    10    29 1   
    25    11    16 1   
    26    11    17 1   
    27    11    30 1   
    28    12    14 1   
    29    12    23 1   
    30    13    18 ar  
    31    13    31 1   
    32    14    20 2   
    33    15    16 2   
    34    16    18 1   
    35    17    32 1   
@<TRIPOS>SUBSTRUCTURE
     1 V05         1 TEMP              0 ****  ****    0 ROOT
