@<TRIPOS>MOLECULE
V05
   33    35     1     0     0
SMALL
abcg2


@<TRIPOS>ATOM
      1 C4           3.9380     4.4200    29.4510 ca         1 V05       0.229000
      2 C5           3.8660     3.1580    28.8760 ca         1 V05      -0.200300
      3 C6           3.4230     1.9560    29.6550 c3         1 V05       0.152900
      4 C11          9.1490    -1.0920    28.9350 ca         1 V05       0.107400
      5 C7           6.3190     0.3430    30.6080 cc         1 V05       0.436000
      6 C8           7.5950    -0.3470    30.3870 ca         1 V05       0.106000
      7 C9           9.3710    -1.4280    31.2530 ca         1 V05       0.107400
      8 C10          9.8920    -1.6090    29.9830 ca         1 V05      -0.212000
      9 C12          4.2460     3.0710    27.5460 ca         1 V05       0.229000
     10 C13          4.6750     4.1590    26.8120 ca         1 V05      -0.144500
     11 N1           6.2000     6.4460    25.8870 ns         1 V05      -0.389400
     12 N2           4.5540     1.3090    30.3010 na         1 V05       0.235600
     13 C3           4.3370     5.5430    28.7600 ca         1 V05      -0.144500
     14 N3           4.6630     1.1890    31.5960 nd         1 V05      -0.177800
     15 O1           4.5680     7.6960    26.8400 o          1 V05      -0.553100
     16 C1           5.1400     6.6340    26.6900 c          1 V05       0.616700
     17 O2           6.6120     7.4300    25.0470 oh         1 V05      -0.409100
     18 C2           4.7250     5.4010    27.4330 ca         1 V05      -0.083600
     19 F1           3.5970     4.5450    30.7360 f          1 V05      -0.154500
     20 N4           5.7760     0.5760    31.8140 nc         1 V05      -0.334000
     21 N5           8.2230    -0.7970    31.4620 nb         1 V05      -0.139500
     22 N6           8.0000    -0.4600    29.1300 nb         1 V05      -0.139500
     23 N7           5.5550     0.8040    29.6380 nd         1 V05      -0.472800
     24 F2           4.1880     1.8810    26.9460 f          1 V05      -0.154500
     25 H1           2.7220     2.2160    30.4440 h1         1 V05       0.096700
     26 H2           2.9370     1.2220    29.0140 h1         1 V05       0.096700
     27 H4           9.8900    -1.8010    32.1290 h4         1 V05       0.030600
     28 H5          10.8260    -2.1240    29.8190 ha         1 V05       0.138000
     29 H6           4.9370     4.0260    25.7700 ha         1 V05       0.153500
     30 H7           6.7020     5.5730    25.8140 hn         1 V05       0.347500
     31 H8           4.3600     6.5050    29.2540 ha         1 V05       0.153500
     32 H9           7.2720     7.9470    25.5310 ho         1 V05       0.442000
     33 H3           9.4870    -1.1870    27.9090 h4         1 V05       0.030600
@<TRIPOS>BOND
     1     1     2 ar  
     2     1    13 ar  
     3     1    19 1   
     4     2     3 1   
     5     2     9 ar  
     6     3    12 1   
     7     3    25 1   
     8     3    26 1   
     9     4     8 ar  
    10     4    22 ar  
    11     4    33 1   
    12     5     6 1   
    13     5    20 1   
    14     5    23 2   
    15     6    21 ar  
    16     6    22 ar  
    17     7     8 ar  
    18     7    21 ar  
    19     7    27 1   
    20     8    28 1   
    21     9    10 ar  
    22     9    24 1   
    23    10    18 ar  
    24    10    29 1   
    25    11    16 1   
    26    11    17 1   
    27    11    30 1   
    28    12    14 1   
    29    12    23 1   
    30    13    18 ar  
    31    13    31 1   
    32    14    20 2   
    33    15    16 2   
    34    16    18 1   
    35    17    32 1   
@<TRIPOS>SUBSTRUCTURE
     1 V05         1 TEMP              0 ****  ****    0 ROOT
