@<TRIPOS>MOLECULE
V06
   13    13     1     0     0
SMALL
abcg2


@<TRIPOS>ATOM
      1 C02         18.2190    -5.7600    21.0260 ca         1 V06       0.384000
      2 C03         18.2930    -5.8100    19.6230 ca         1 V06      -0.158900
      3 C05         17.4630    -6.6480    18.8980 ca         1 V06       0.404900
      4 C07         16.4760    -7.4150    20.8010 ca         1 V06       0.383900
      5 C08         17.2600    -6.6140    21.6040 ca         1 V06      -0.251000
      6 N01         18.9780    -4.9290    21.7830 nv         1 V06      -1.099000
      7 N06         16.5560    -7.4490    19.4620 nb         1 V06      -0.700000
      8 BR04        19.5520    -4.7120    18.6910 br         1 V06      -0.109100
      9 H1          17.5400    -6.6690    17.8170 h4         1 V06       0.031100
     10 H2          15.7400    -8.0690    21.2550 h4         1 V06       0.020100
     11 H3          17.1450    -6.6350    22.6810 ha         1 V06       0.122000
     12 H4          19.0070    -5.0790    22.7780 hn         1 V06       0.486000
     13 H5          19.7920    -4.4980    21.3760 hn         1 V06       0.486000
@<TRIPOS>BOND
     1     1     2 ar  
     2     1     5 ar  
     3     1     6 1   
     4     2     3 ar  
     5     2     8 1   
     6     3     7 ar  
     7     3     9 1   
     8     4     5 ar  
     9     4     7 ar  
    10     4    10 1   
    11     5    11 1   
    12     6    12 1   
    13     6    13 1   
@<TRIPOS>SUBSTRUCTURE
     1 V06         1 TEMP              0 ****  ****    0 ROOT
