@<TRIPOS>MOLECULE
V06
   13    13     1     0     0
SMALL
No Charge or Current Charge


@<TRIPOS>ATOM
      1 C02         18.1940    -5.7670    21.0120 ca         1 V06       0.384000
      2 C03         18.3130    -5.7840    19.6160 ca         1 V06      -0.158900
      3 C05         17.4760    -6.6440    18.8880 ca         1 V06       0.404900
      4 C07         16.4630    -7.4260    20.8180 ca         1 V06       0.383900
      5 C08         17.2580    -6.5990    21.6200 ca         1 V06      -0.251000
      6 N01         18.9780    -4.9540    21.7810 nv         1 V06      -1.099000
      7 N06         16.5630    -7.4560    19.4710 nb         1 V06      -0.700000
      8 Br04        19.5820    -4.6710    18.6900 br         1 V06      -0.109100
      9 H1          17.5370    -6.6870    17.8010 h4         1 V06       0.031100
     10 H2          15.7210    -8.0860    21.2650 h4         1 V06       0.020100
     11 H3          17.1350    -6.6130    22.6980 ha         1 V06       0.122000
     12 H4          19.0250    -5.1120    22.7860 hn         1 V06       0.486000
     13 H5          19.7750    -4.4880    21.3500 hn         1 V06       0.486000
@<TRIPOS>BOND
     1     1     2 ar  
     2     1     5 ar  
     3     1     6 1   
     4     2     3 ar  
     5     2     8 1   
     6     3     7 ar  
     7     3     9 1   
     8     4     5 ar  
     9     4     7 ar  
    10     4    10 1   
    11     5    11 1   
    12     6    12 1   
    13     6    13 1   
@<TRIPOS>SUBSTRUCTURE
     1 V06         1 TEMP              0 ****  ****    0 ROOT
