@<TRIPOS>MOLECULE
V07
   45    48     1     0     0
SMALL
No Charge or Current Charge


@<TRIPOS>ATOM
      1 C2          -4.6190   -10.3170   -17.8510 cc         1 V07       0.419000
      2 C10         -2.9730    -8.4390   -17.5360 c3         1 V07       0.232800
      3 C11         -1.9140    -8.3170   -18.6540 c3         1 V07      -0.098400
      4 C12         -2.0800    -7.0820   -19.5680 c3         1 V07      -0.072400
      5 C13         -3.4550    -6.9550   -20.2620 c3         1 V07      -0.072400
      6 C14         -4.6340    -6.7290   -19.2840 c3         1 V07      -0.098400
      7 C15         -5.2230    -8.0110   -18.6470 c3         1 V07       0.232800
      8 C17         -8.0520   -11.0250   -17.5100 cc         1 V07       0.410500
      9 C18         -7.5570   -12.3400   -17.4900 cc         1 V07      -0.254800
     10 C19         -8.3000   -13.6040   -17.2890 ca         1 V07       0.005200
     11 C20         -7.7260   -14.8880   -17.4680 ca         1 V07      -0.084000
     12 C21         -8.4860   -16.0540   -17.2680 ca         1 V07      -0.151000
     13 C22         -9.8310   -15.9590   -16.8910 ca         1 V07       0.157000
     14 C23        -10.4230   -14.7030   -16.7190 ca         1 V07      -0.151000
     15 C24         -9.6650   -13.5360   -16.9200 ca         1 V07      -0.084000
     16 C4          -6.2010   -12.1970   -17.5940 cd         1 V07       0.436500
     17 C6          -3.9660   -12.6860   -17.6530 cd         1 V07       0.438300
     18 C7          -3.6450   -11.3050   -17.8070 cd         1 V07      -0.345000
     19 C8          -2.9210   -13.7630   -17.6100 c3         1 V07      -0.151400
     20 F25        -10.5590   -17.0810   -16.7010 f          1 V07      -0.185000
     21 N16         -7.1390   -10.0830   -17.6510 nd         1 V07      -0.600100
     22 N3          -5.9410   -10.8200   -17.7170 na         1 V07       0.067900
     23 N5          -5.2160   -13.0740   -17.5540 nc         1 V07      -0.700000
     24 N9          -4.2760    -8.9680   -18.0130 nh         1 V07      -0.813400
     25 H2          -3.1070    -7.4590   -17.0570 h1         1 V07       0.060950
     26 H3          -1.9160    -9.2260   -19.2670 hc         1 V07       0.049450
     27 H4          -0.9240    -8.2620   -18.1850 hc         1 V07       0.049450
     28 H5          -1.3000    -7.1140   -20.3390 hc         1 V07       0.043700
     29 H6          -1.8910    -6.1750   -18.9800 hc         1 V07       0.043700
     30 H7          -3.4080    -6.1010   -20.9480 hc         1 V07       0.043700
     31 H8          -3.6460    -7.8410   -20.8810 hc         1 V07       0.043700
     32 H9          -4.3310    -6.0290   -18.4960 hc         1 V07       0.049450
     33 H10         -5.4450    -6.2310   -19.8290 hc         1 V07       0.049450
     34 H11         -5.9690    -7.6960   -17.9040 h1         1 V07       0.060950
     35 H12         -5.7720    -8.5360   -19.4410 h1         1 V07       0.060950
     36 H13         -9.0850   -10.7150   -17.4260 h4         1 V07       0.045800
     37 H14         -6.6970   -15.0100   -17.7830 ha         1 V07       0.122500
     38 H15         -8.0330   -17.0320   -17.4110 ha         1 V07       0.126500
     39 H16        -11.4690   -14.6330   -16.4300 ha         1 V07       0.126500
     40 H17        -10.1510   -12.5750   -16.7730 ha         1 V07       0.122500
     41 H18         -2.6020   -11.0450   -17.9070 ha         1 V07       0.135000
     42 H19         -2.9380   -14.3580   -18.5300 hc         1 V07       0.055700
     43 H20         -1.9160   -13.3390   -17.5030 hc         1 V07       0.055700
     44 H21         -3.0870   -14.4400   -16.7640 hc         1 V07       0.055700
     45 H1          -2.5730    -9.0970   -16.7520 h1         1 V07       0.060950
@<TRIPOS>BOND
     1     1    18 2   
     2     1    22 1   
     3     1    24 1   
     4     2     3 1   
     5     2    24 1   
     6     2    25 1   
     7     2    45 1   
     8     3     4 1   
     9     3    26 1   
    10     3    27 1   
    11     4     5 1   
    12     4    28 1   
    13     4    29 1   
    14     5     6 1   
    15     5    30 1   
    16     5    31 1   
    17     6     7 1   
    18     6    32 1   
    19     6    33 1   
    20     7    24 1   
    21     7    34 1   
    22     7    35 1   
    23     8     9 1   
    24     8    21 2   
    25     8    36 1   
    26     9    10 1   
    27     9    16 2   
    28    10    11 ar  
    29    10    15 ar  
    30    11    12 ar  
    31    11    37 1   
    32    12    13 ar  
    33    12    38 1   
    34    13    14 ar  
    35    13    20 1   
    36    14    15 ar  
    37    14    39 1   
    38    15    40 1   
    39    16    22 1   
    40    16    23 1   
    41    17    18 1   
    42    17    19 1   
    43    17    23 2   
    44    18    41 1   
    45    19    42 1   
    46    19    43 1   
    47    19    44 1   
    48    21    22 1   
@<TRIPOS>SUBSTRUCTURE
     1 V07         1 TEMP              0 ****  ****    0 ROOT
