@<TRIPOS>MOLECULE
V07
   45    48     1     0     0
SMALL
bcc


@<TRIPOS>ATOM
      1 C2          -4.5810   -10.2640   -17.7130 cc         1 V07       0.331300
      2 C10         -3.0330    -8.4400   -17.5000 c3         1 V07       0.232800
      3 C11         -2.0250    -8.4680   -18.6480 c3         1 V07      -0.098400
      4 C12         -2.2240    -7.3840   -19.6980 c3         1 V07      -0.072400
      5 C13         -3.6350    -7.3060   -20.2700 c3         1 V07      -0.072400
      6 C14         -4.6760    -6.8790   -19.2360 c3         1 V07      -0.098400
      7 C15         -5.3200    -8.0090   -18.4440 c3         1 V07       0.232800
      8 C17         -7.9460   -10.9560   -17.4540 cc         1 V07       0.410500
      9 C18         -7.4780   -12.2780   -17.4510 cc         1 V07      -0.254800
     10 C19         -8.2610   -13.5050   -17.3580 ca         1 V07       0.005200
     11 C20         -7.7540   -14.7380   -17.7850 ca         1 V07      -0.102000
     12 C21         -8.5160   -15.8940   -17.7200 ca         1 V07      -0.169000
     13 C22         -9.8030   -15.8190   -17.2270 ca         1 V07       0.121900
     14 C23        -10.3420   -14.6240   -16.7900 ca         1 V07      -0.169000
     15 C24         -9.5660   -13.4780   -16.8550 ca         1 V07      -0.102000
     16 C4          -6.0930   -12.1390   -17.5490 cd         1 V07       0.436500
     17 C6          -3.8840   -12.5850   -17.5160 cd         1 V07       0.503600
     18 C7          -3.5780   -11.2210   -17.6110 cd         1 V07      -0.428300
     19 C8          -2.7650   -13.5770   -17.4480 c3         1 V07      -0.151400
     20 F25        -10.5500   -16.9360   -17.1720 f          1 V07      -0.149900
     21 N16         -6.9890   -10.0590   -17.5560 nd         1 V07      -0.600100
     22 N3          -5.8540   -10.7750   -17.6370 na         1 V07       0.017200
     23 N5          -5.1150   -13.0480   -17.5050 nc         1 V07      -0.700000
     24 N9          -4.3610    -8.9420   -17.8380 nh         1 V07      -0.675000
     25 H2          -3.1480    -7.4220   -17.1230 h1         1 V07       0.060950
     26 H3          -2.0470    -9.4480   -19.1320 hc         1 V07       0.049450
     27 H4          -1.0260    -8.3670   -18.2160 hc         1 V07       0.049450
     28 H5          -1.5090    -7.5500   -20.5080 hc         1 V07       0.043700
     29 H6          -1.9720    -6.4110   -19.2650 hc         1 V07       0.043700
     30 H7          -3.6330    -6.5820   -21.0880 hc         1 V07       0.043700
     31 H8          -3.9190    -8.2650   -20.7170 hc         1 V07       0.043700
     32 H9          -4.2440    -6.1260   -18.5710 hc         1 V07       0.049450
     33 H10         -5.5100    -6.3790   -19.7350 hc         1 V07       0.049450
     34 H11         -5.9700    -7.5800   -17.6790 h1         1 V07       0.060950
     35 H12         -5.9570    -8.5670   -19.1250 h1         1 V07       0.060950
     36 H13         -8.9710   -10.6200   -17.3870 h4         1 V07       0.045800
     37 H14         -6.7480   -14.7990   -18.1750 ha         1 V07       0.140500
     38 H15         -8.1110   -16.8400   -18.0550 ha         1 V07       0.144500
     39 H16        -11.3510   -14.5860   -16.3980 ha         1 V07       0.144500
     40 H17         -9.9900   -12.5490   -16.4970 ha         1 V07       0.140500
     41 H18         -2.5420   -10.9290   -17.6630 ha         1 V07       0.153000
     42 H19         -3.1520   -14.5930   -17.4040 hc         1 V07       0.055700
     43 H20         -2.1150   -13.4880   -18.3200 hc         1 V07       0.055700
     44 H21         -2.1440   -13.4020   -16.5690 hc         1 V07       0.055700
     45 H1          -2.6570    -9.0210   -16.6570 h1         1 V07       0.060950
@<TRIPOS>BOND
     1     1    18 2   
     2     1    22 1   
     3     1    24 1   
     4     2     3 1   
     5     2    24 1   
     6     2    25 1   
     7     2    45 1   
     8     3     4 1   
     9     3    26 1   
    10     3    27 1   
    11     4     5 1   
    12     4    28 1   
    13     4    29 1   
    14     5     6 1   
    15     5    30 1   
    16     5    31 1   
    17     6     7 1   
    18     6    32 1   
    19     6    33 1   
    20     7    24 1   
    21     7    34 1   
    22     7    35 1   
    23     8     9 1   
    24     8    21 2   
    25     8    36 1   
    26     9    10 1   
    27     9    16 2   
    28    10    11 ar  
    29    10    15 ar  
    30    11    12 ar  
    31    11    37 1   
    32    12    13 ar  
    33    12    38 1   
    34    13    14 ar  
    35    13    20 1   
    36    14    15 ar  
    37    14    39 1   
    38    15    40 1   
    39    16    22 1   
    40    16    23 1   
    41    17    18 1   
    42    17    19 1   
    43    17    23 2   
    44    18    41 1   
    45    19    42 1   
    46    19    43 1   
    47    19    44 1   
    48    21    22 1   
@<TRIPOS>SUBSTRUCTURE
     1 V07         1 TEMP              0 ****  ****    0 ROOT
