@<TRIPOS>MOLECULE
V08
   22    21     1     0     0
SMALL
abcg2


@<TRIPOS>ATOM
      1 C4          62.3400  -138.4340    41.3420 c3         1 V08       0.022300
      2 C7          62.4800  -136.9730    41.8210 c3         1 V08      -0.179700
      3 C8          63.3330  -136.0930    40.8900 c3         1 V08      -0.050700
      4 C3          61.4560  -139.2470    42.3210 c          1 V08       0.690000
      5 O13         60.2730  -138.9040    42.4500 o          1 V08      -0.710500
      6 O5          63.5930  -139.0530    41.2200 oh         1 V08      -0.713000
      7 C37         62.7910  -136.0760    39.4640 c3         1 V08      -0.083600
      8 C9          63.4110  -134.6670    41.4340 c3         1 V08      -0.083600
      9 C16         63.0860  -136.9850    43.1970 c          1 V08       0.597900
     10 O17         62.4830  -136.7840    44.2240 o          1 V08      -0.538100
     11 H1          61.8310  -138.4130    40.3700 h1         1 V08       0.037700
     12 H2          61.4740  -136.5490    41.8910 hc         1 V08       0.080700
     13 H3          64.3490  -136.5030    40.8650 hc         1 V08       0.052700
     14 H5          63.5260  -139.7720    41.8790 ho         1 V08       0.476000
     15 H6          62.8400  -137.0520    38.9840 hc         1 V08       0.024200
     16 H7          61.7490  -135.7450    39.4450 hc         1 V08       0.024200
     17 H8          63.3660  -135.3830    38.8480 hc         1 V08       0.024200
     18 H9          63.8730  -134.6200    42.4220 hc         1 V08       0.024200
     19 H10         64.0020  -134.0320    40.7730 hc         1 V08       0.024200
     20 H11         62.4140  -134.2270    41.5150 hc         1 V08       0.024200
     21 H12         64.1680  -137.2140    43.2220 h4         1 V08      -0.033800
     22 O8          62.0580  -140.1830    42.8970 o          1 V08      -0.710500
@<TRIPOS>BOND
     1     1     2 1   
     2     1     4 1   
     3     1     6 1   
     4     1    11 1   
     5     2     3 1   
     6     2     9 1   
     7     2    12 1   
     8     3     7 1   
     9     3     8 1   
    10     3    13 1   
    11     4     5 1   
    12     4    22 1   
    13     6    14 1   
    14     7    15 1   
    15     7    16 1   
    16     7    17 1   
    17     8    18 1   
    18     8    19 1   
    19     8    20 1   
    20     9    10 2   
    21     9    21 1   
@<TRIPOS>SUBSTRUCTURE
     1 V08         1 TEMP              0 ****  ****    0 ROOT
