@<TRIPOS>MOLECULE
V08
   22    21     1     0     0
SMALL
No Charge or Current Charge


@<TRIPOS>ATOM
      1 C4          62.3960  -138.4760    41.3810 c3         1 V08       0.022300
      2 C7          62.5170  -136.9920    41.8480 c3         1 V08      -0.179700
      3 C8          63.3180  -136.0670    40.8690 c3         1 V08      -0.050700
      4 C3          61.3940  -139.3030    42.2760 c          1 V08       0.690000
      5 O13         60.2010  -139.0450    42.2200 o          1 V08      -0.710500
      6 O5          63.7120  -139.0850    41.3360 oh         1 V08      -0.713000
      7 C37         62.7060  -136.0250    39.4460 c3         1 V08      -0.083600
      8 C9          63.4650  -134.6250    41.4190 c3         1 V08      -0.083600
      9 C16         63.1010  -136.9500    43.2710 c          1 V08       0.597900
     10 O17         62.4690  -136.5570    44.2470 o          1 V08      -0.538100
     11 H1          61.9560  -138.4920    40.3760 h1         1 V08       0.037700
     12 H2          61.4990  -136.5890    41.9180 hc         1 V08       0.080700
     13 H3          64.3340  -136.4720    40.7720 hc         1 V08       0.052700
     14 H5          63.6270  -139.9120    41.8720 ho         1 V08       0.476000
     15 H6          62.7590  -137.0060    38.9590 hc         1 V08       0.024200
     16 H7          61.6560  -135.7100    39.4800 hc         1 V08       0.024200
     17 H8          63.2530  -135.3190    38.8090 hc         1 V08       0.024200
     18 H9          64.0220  -134.6100    42.3630 hc         1 V08       0.024200
     19 H10         64.0120  -133.9930    40.7080 hc         1 V08       0.024200
     20 H11         62.4810  -134.1710    41.5900 hc         1 V08       0.024200
     21 H12         64.1570  -137.2860    43.3740 h4         1 V08      -0.033800
     22 O8          61.8590  -140.2230    42.9380 o          1 V08      -0.710500
@<TRIPOS>BOND
     1     1     2 1   
     2     1     4 1   
     3     1     6 1   
     4     1    11 1   
     5     2     3 1   
     6     2     9 1   
     7     2    12 1   
     8     3     7 1   
     9     3     8 1   
    10     3    13 1   
    11     4     5 1   
    12     4    22 1   
    13     6    14 1   
    14     7    15 1   
    15     7    16 1   
    16     7    17 1   
    17     8    18 1   
    18     8    19 1   
    19     8    20 1   
    20     9    10 2   
    21     9    21 1   
@<TRIPOS>SUBSTRUCTURE
     1 V08         1 TEMP              0 ****  ****    0 ROOT
