@<TRIPOS>MOLECULE
V0B
   40    43     1     0     0
SMALL
bcc


@<TRIPOS>ATOM
      1 C10        -41.4120    36.9590    27.0670 c          1 V0B       0.675300
      2 C13        -40.4750    39.2540    27.0660 cc         1 V0B      -0.304200
      3 C17        -40.1790    41.6410    24.3280 cc         1 V0B      -0.029300
      4 C20        -41.3660    39.5310    23.0320 cc         1 V0B      -0.164000
      5 C21        -41.0670    39.4190    24.4130 cc         1 V0B       0.146700
      6 C02        -43.5520    30.6930    22.5500 cc         1 V0B      -0.102300
      7 C03        -43.9480    31.8620    21.8370 cc         1 V0B      -0.122000
      8 C04        -43.8560    33.1000    22.3960 cd         1 V0B      -0.089000
      9 C05        -43.3590    33.2250    23.7090 cd         1 V0B      -0.026300
     10 C07        -42.6660    33.8220    25.6340 cc         1 V0B       0.045400
     11 C08        -42.3550    34.7340    26.7730 c3         1 V0B       0.184200
     12 C12        -41.0630    38.2440    26.3580 cd         1 V0B       0.154400
     13 C14        -40.1300    40.4710    26.4260 c          1 V0B       0.593500
     14 C18        -40.4620    41.7490    23.0110 cd         1 V0B      -0.203000
     15 C19        -41.0730    40.6640    22.3420 cd         1 V0B      -0.056000
     16 C23        -42.5290    32.4590    25.6080 cd         1 V0B      -0.222100
     17 C25        -43.0730    30.8340    23.8140 cd         1 V0B      -0.081300
     18 N06        -43.1740    34.2910    24.4690 nc         1 V0B      -0.298600
     19 N09        -41.9160    36.0150    26.2730 ns         1 V0B      -0.541900
     20 N16        -40.4710    40.4990    25.0280 n          1 V0B      -0.095200
     21 N22        -41.3580    38.3100    25.0590 nd         1 V0B      -0.385600
     22 N24        -42.9820    32.0760    24.3740 na         1 V0B       0.038700
     23 O11        -41.2300    36.8270    28.2690 o          1 V0B      -0.606100
     24 O15        -39.5990    41.4430    26.9280 o          1 V0B      -0.602500
     25 H1         -40.2560    39.1530    28.1190 ha         1 V0B       0.191000
     26 H3         -39.7140    42.4290    24.8970 h4         1 V0B       0.190000
     27 H4         -41.8340    38.6770    22.5620 ha         1 V0B       0.170000
     28 H5         -43.0730    29.2920    20.9970 hc         1 V0B       0.047367
     29 H6         -43.3230    28.5530    22.5780 hc         1 V0B       0.047367
     30 H7         -44.6990    29.1260    21.6370 hc         1 V0B       0.047367
     31 H8         -44.3300    31.7550    20.8290 ha         1 V0B       0.142000
     32 H9         -44.1550    33.9920    21.8630 ha         1 V0B       0.161000
     33 H10        -43.2430    34.8610    27.4030 h1         1 V0B       0.059700
     34 H11        -41.5860    34.2880    27.4050 h1         1 V0B       0.059700
     35 H12        -40.2170    42.6620    22.4900 ha         1 V0B       0.156000
     36 H13        -41.3060    40.7380    21.2880 ha         1 V0B       0.147000
     37 H14        -42.1610    31.7530    26.3340 h4         1 V0B       0.185000
     38 H15        -42.7490    30.0060    24.4280 h4         1 V0B       0.162000
     39 H16        -42.0800    36.2380    25.3010 hn         1 V0B       0.365500
     40 C01        -43.6660    29.3430    21.9120 c3         1 V0B      -0.040800
@<TRIPOS>BOND
     1     1    12 1   
     2     1    19 1   
     3     1    23 2   
     4     2    12 2   
     5     2    13 1   
     6     2    25 1   
     7     3    14 2   
     8     3    20 1   
     9     3    26 1   
    10     4     5 1   
    11     4    15 2   
    12     4    27 1   
    13     5    20 1   
    14     5    21 2   
    15     6     7 1   
    16     6    17 2   
    17     6    40 1   
    18     7     8 2   
    19     7    31 1   
    20     8     9 1   
    21     8    32 1   
    22     9    18 2   
    23     9    22 1   
    24    10    11 1   
    25    10    16 2   
    26    10    18 1   
    27    11    19 1   
    28    11    33 1   
    29    11    34 1   
    30    12    21 1   
    31    13    20 1   
    32    13    24 2   
    33    14    15 1   
    34    14    35 1   
    35    15    36 1   
    36    16    22 1   
    37    16    37 1   
    38    17    22 1   
    39    17    38 1   
    40    19    39 1   
    41    28    40 1   
    42    29    40 1   
    43    30    40 1   
@<TRIPOS>SUBSTRUCTURE
     1 V0B         1 TEMP              0 ****  ****    0 ROOT
