@<TRIPOS>MOLECULE
V0B
   40    43     1     0     0
SMALL
No Charge or Current Charge


@<TRIPOS>ATOM
      1 C10        -41.7750    37.0550    27.1600 c          1 V0B       0.608300
      2 C13        -40.8110    39.3560    27.0510 cc         1 V0B      -0.354200
      3 C17        -39.8280    41.6110    24.2760 cc         1 V0B      -0.062000
      4 C20        -40.7340    39.3990    22.9300 cc         1 V0B      -0.146000
      5 C21        -40.7660    39.3710    24.3700 cc         1 V0B       0.096000
      6 C02        -43.4460    30.8080    22.4710 cc         1 V0B      -0.102300
      7 C03        -44.7960    31.3390    22.4650 cc         1 V0B      -0.104000
      8 C04        -45.1900    32.3310    23.3390 cd         1 V0B      -0.071000
      9 C05        -44.1860    32.7890    24.2370 cd         1 V0B      -0.077000
     10 C07        -43.0260    33.7780    25.7490 cc         1 V0B       0.045400
     11 C08        -42.7390    34.7530    26.8630 c3         1 V0B       0.184200
     12 C12        -41.2680    38.2390    26.3710 cd         1 V0B       0.154400
     13 C14        -40.2970    40.5640    26.4300 c          1 V0B       0.518000
     14 C18        -39.8030    41.6230    22.9000 cd         1 V0B      -0.185000
     15 C19        -40.2740    40.4720    22.1990 cd         1 V0B      -0.038000
     16 C23        -42.1420    32.8820    25.1800 cd         1 V0B      -0.272100
     17 C25        -42.4830    31.2790    23.3640 cd         1 V0B      -0.114000
     18 N06        -44.2790    33.7210    25.1670 nc         1 V0B      -0.298600
     19 N09        -42.1980    36.0150    26.3640 ns         1 V0B      -0.474900
     20 N16        -40.2950    40.5200    25.0300 n          1 V0B       0.006200
     21 N22        -41.2340    38.2730    24.9660 nd         1 V0B      -0.385600
     22 N24        -42.9220    32.2780    24.2330 na         1 V0B       0.140100
     23 O11        -41.8200    36.9890    28.3850 o          1 V0B      -0.606100
     24 O15        -39.9070    41.5190    27.0920 o          1 V0B      -0.527000
     25 H1         -40.8140    39.3860    28.1340 ha         1 V0B       0.241000
     26 H3         -39.4920    42.4360    24.8920 h4         1 V0B       0.172000
     27 H4         -41.0930    38.5200    22.4020 ha         1 V0B       0.152000
     28 H5         -43.2880    30.0890    20.4440 hc         1 V0B       0.047367
     29 H6         -42.0940    29.3910    21.5510 hc         1 V0B       0.047367
     30 H7         -43.7810    28.8550    21.6200 hc         1 V0B       0.047367
     31 H8         -45.5100    30.9400    21.7500 ha         1 V0B       0.124000
     32 H9         -46.1970    32.7350    23.3400 ha         1 V0B       0.143000
     33 H10        -43.6620    34.9570    27.4210 h1         1 V0B       0.059700
     34 H11        -42.0150    34.3050    27.5560 h1         1 V0B       0.059700
     35 H12        -39.4330    42.4900    22.3590 ha         1 V0B       0.138000
     36 H13        -40.2710    40.4420    21.1130 ha         1 V0B       0.129000
     37 H14        -41.0990    32.6530    25.3670 h4         1 V0B       0.235000
     38 H15        -41.4560    30.9420    23.4370 h4         1 V0B       0.144000
     39 H16        -42.1300    36.1580    25.3620 hn         1 V0B       0.365500
     40 C01        -43.1350    29.7280    21.4680 c3         1 V0B      -0.040800
@<TRIPOS>BOND
     1     1    12 1   
     2     1    19 1   
     3     1    23 2   
     4     2    12 2   
     5     2    13 1   
     6     2    25 1   
     7     3    14 2   
     8     3    20 1   
     9     3    26 1   
    10     4     5 1   
    11     4    15 2   
    12     4    27 1   
    13     5    20 1   
    14     5    21 2   
    15     6     7 1   
    16     6    17 2   
    17     6    40 1   
    18     7     8 2   
    19     7    31 1   
    20     8     9 1   
    21     8    32 1   
    22     9    18 2   
    23     9    22 1   
    24    10    11 1   
    25    10    16 2   
    26    10    18 1   
    27    11    19 1   
    28    11    33 1   
    29    11    34 1   
    30    12    21 1   
    31    13    20 1   
    32    13    24 2   
    33    14    15 1   
    34    14    35 1   
    35    15    36 1   
    36    16    22 1   
    37    16    37 1   
    38    17    22 1   
    39    17    38 1   
    40    19    39 1   
    41    28    40 1   
    42    29    40 1   
    43    30    40 1   
@<TRIPOS>SUBSTRUCTURE
     1 V0B         1 TEMP              0 ****  ****    0 ROOT
