@<TRIPOS>MOLECULE
V0C
   30    31     1     0     0
SMALL
abcg2


@<TRIPOS>ATOM
      1 N1          26.7990    19.0410   -10.4820 n3         1 V0C      -0.729600
      2 C7          27.5380    19.2610   -12.7900 c1         1 V0C       0.258900
      3 C8          27.6620    20.0600    -9.8900 c6         1 V0C       0.175300
      4 N2          25.7080    20.2840    -8.3930 n7         1 V0C      -0.853400
      5 C9          27.1780    20.3740    -8.4710 c6         1 V0C       0.157800
      6 C1          25.0930    15.8280   -13.3890 ca         1 V0C      -0.087500
      7 C5          26.5850    17.1030   -11.9780 ca         1 V0C      -0.077300
      8 C6          27.3720    18.3540   -11.6230 c3         1 V0C       0.313900
      9 C4          26.6150    16.0460   -11.0700 ca         1 V0C      -0.087000
     10 C3          25.8940    14.8850   -11.3080 ca         1 V0C      -0.087500
     11 C2          25.1390    14.7920   -12.4710 ca         1 V0C      -0.003900
     12 BR          24.1410    13.1920   -12.8050 br         1 V0C      -0.107100
     13 C           25.8230    16.9860   -13.1330 ca         1 V0C      -0.087000
     14 C11         25.4190    19.5150   -10.6870 c6         1 V0C       0.175300
     15 C10         25.0810    20.6080    -9.6710 c6         1 V0C       0.157800
     16 H8          28.6800    19.6730    -9.8510 h1         1 V0C       0.042700
     17 H7          27.6870    20.9740   -10.5010 h1         1 V0C       0.042700
     18 H2          25.3660    20.9050    -7.6720 hn         1 V0C       0.412000
     19 H10         27.6090    19.6550    -7.7700 h1         1 V0C       0.037450
     20 H9          27.5470    21.3700    -8.1960 h1         1 V0C       0.037450
     21 H4          24.4990    15.7440   -14.2890 ha         1 V0C       0.133000
     22 H           28.3850    18.0510   -11.3440 h1         1 V0C       0.086700
     23 H6          27.2030    16.1320   -10.1650 ha         1 V0C       0.126500
     24 H5          25.9230    14.0670   -10.6020 ha         1 V0C       0.133000
     25 H3          25.7820    17.7970   -13.8480 ha         1 V0C       0.126500
     26 H14         25.2760    19.9200   -11.6990 h1         1 V0C       0.042700
     27 H13         24.7440    18.6660   -10.5720 h1         1 V0C       0.042700
     28 H11         25.3980    21.5870   -10.0610 h1         1 V0C       0.037450
     29 H12         24.0000    20.6520    -9.5400 h1         1 V0C       0.037450
     30 N           27.6610    20.0360   -13.6320 n1         1 V0C      -0.459000
@<TRIPOS>BOND
     1     1     3 1   
     2     1     8 1   
     3     1    14 1   
     4     2     8 1   
     5     2    30 3   
     6     3     5 1   
     7     3    16 1   
     8     3    17 1   
     9     4     5 1   
    10     4    15 1   
    11     4    18 1   
    12     5    19 1   
    13     5    20 1   
    14     6    11 ar  
    15     6    13 ar  
    16     6    21 1   
    17     7     8 1   
    18     7     9 ar  
    19     7    13 ar  
    20     8    22 1   
    21     9    10 ar  
    22     9    23 1   
    23    10    11 ar  
    24    10    24 1   
    25    11    12 1   
    26    13    25 1   
    27    14    15 1   
    28    14    26 1   
    29    14    27 1   
    30    15    28 1   
    31    15    29 1   
@<TRIPOS>SUBSTRUCTURE
     1 V0C         1 TEMP              0 ****  ****    0 ROOT
