@<TRIPOS>MOLECULE
V0C
   30    31     1     0     0
SMALL
No Charge or Current Charge


@<TRIPOS>ATOM
      1 N1          26.8140    19.0210   -10.4160 n3         1 V0C      -0.729600
      2 C7          27.8390    19.0240   -12.7280 c1         1 V0C       0.258900
      3 C8          27.7000    20.0530    -9.7940 c6         1 V0C       0.175300
      4 N2          25.6120    20.5550    -8.3560 n7         1 V0C      -0.853400
      5 C9          27.1030    20.6370    -8.4620 c6         1 V0C       0.157800
      6 C1          24.8070    15.9410   -13.1960 ca         1 V0C      -0.087500
      7 C5          26.6050    17.0070   -11.9180 ca         1 V0C      -0.077300
      8 C6          27.4460    18.2360   -11.5280 c3         1 V0C       0.313900
      9 C4          26.8740    15.7650   -11.3010 ca         1 V0C      -0.087000
     10 C3          26.1220    14.6240   -11.6310 ca         1 V0C      -0.087500
     11 C2          25.0900    14.7130   -12.5790 ca         1 V0C      -0.003900
     12 Br          24.0660    13.1610   -13.0250 br         1 V0C      -0.107100
     13 C           25.5580    17.0830   -12.8680 ca         1 V0C      -0.087000
     14 C11         25.4490    19.5780   -10.7180 c6         1 V0C       0.175300
     15 C10         24.9430    20.6480    -9.6830 c6         1 V0C       0.157800
     16 H8          28.6960    19.6400    -9.5790 h1         1 V0C       0.042700
     17 H7          27.8480    20.8860   -10.4990 h1         1 V0C       0.042700
     18 H2          25.2700    21.2990    -7.7330 hn         1 V0C       0.412000
     19 H10         27.5410    20.1030    -7.6050 h1         1 V0C       0.037450
     20 H9          27.4180    21.6870    -8.3780 h1         1 V0C       0.037450
     21 H4          24.0050    16.0100   -13.9280 ha         1 V0C       0.133000
     22 H           28.3970    17.8390   -11.1470 h1         1 V0C       0.086700
     23 H6          27.6660    15.6840   -10.5600 ha         1 V0C       0.126500
     24 H5          26.3380    13.6730   -11.1500 ha         1 V0C       0.133000
     25 H3          25.3180    18.0270   -13.3530 ha         1 V0C       0.126500
     26 H14         25.4240    20.0410   -11.7150 h1         1 V0C       0.042700
     27 H13         24.7220    18.7530   -10.7380 h1         1 V0C       0.042700
     28 H11         25.1350    21.6480   -10.0990 h1         1 V0C       0.037450
     29 H12         23.8540    20.5540    -9.5630 h1         1 V0C       0.037450
     30 N           28.1450    19.6670   -13.6530 n1         1 V0C      -0.459000
@<TRIPOS>BOND
     1     1     3 1   
     2     1     8 1   
     3     1    14 1   
     4     2     8 1   
     5     2    30 3   
     6     3     5 1   
     7     3    16 1   
     8     3    17 1   
     9     4     5 1   
    10     4    15 1   
    11     4    18 1   
    12     5    19 1   
    13     5    20 1   
    14     6    11 ar  
    15     6    13 ar  
    16     6    21 1   
    17     7     8 1   
    18     7     9 ar  
    19     7    13 ar  
    20     8    22 1   
    21     9    10 ar  
    22     9    23 1   
    23    10    11 ar  
    24    10    24 1   
    25    11    12 1   
    26    13    25 1   
    27    14    15 1   
    28    14    26 1   
    29    14    27 1   
    30    15    28 1   
    31    15    29 1   
@<TRIPOS>SUBSTRUCTURE
     1 V0C         1 TEMP              0 ****  ****    0 ROOT
