@<TRIPOS>MOLECULE
V0D
   48    51     1     0     0
SMALL
No Charge or Current Charge


@<TRIPOS>ATOM
      1 C10         -5.0160     8.0810   -17.7190 c3         1 V0D       0.232800
      2 C13         -3.2990     7.3920   -20.2550 c3         1 V0D      -0.072400
      3 C17         -3.1970    13.5000   -17.4110 cc         1 V0D       0.412500
      4 C12         -4.4740     6.5320   -19.7360 c3         1 V0D      -0.072400
      5 C14         -2.4230     8.0050   -19.1350 c3         1 V0D      -0.098400
      6 C1          -9.3620    11.5540   -16.7560 c3         1 V0D      -0.085100
      7 C11         -5.5530     7.2990   -18.9380 c3         1 V0D      -0.098400
      8 C15         -2.9510     9.3290   -18.5310 c3         1 V0D       0.232800
      9 C18         -4.4790    14.0660   -17.5670 cc         1 V0D      -0.256800
     10 C19         -4.8900    15.4730   -17.3680 ca         1 V0D       0.007200
     11 C2          -5.0590    10.5810   -17.9980 cc         1 V0D       0.418000
     12 C20         -6.0970    16.0190   -17.8740 ca         1 V0D      -0.086500
     13 C21         -6.4230    17.3710   -17.6620 ca         1 V0D      -0.150500
     14 C22         -5.5470    18.2010   -16.9510 ca         1 V0D       0.156000
     15 C23         -4.3410    17.6890   -16.4600 ca         1 V0D      -0.150500
     16 C24         -4.0120    16.3380   -16.6730 ca         1 V0D      -0.086500
     17 C4          -5.2880    12.9800   -17.7750 cd         1 V0D       0.439500
     18 C6          -7.1620    11.8400   -18.0080 cc         1 V0D       0.438300
     19 C7          -6.4410    10.6630   -18.0920 cd         1 V0D      -0.340000
     20 C8          -8.6660    11.7800   -18.1140 c3         1 V0D      -0.130700
     21 F25         -5.8610    19.4990   -16.7510 f          1 V0D      -0.185000
     22 N16         -3.1320    12.1870   -17.5610 nd         1 V0D      -0.602100
     23 N3          -4.4750    11.8490   -17.8030 na         1 V0D       0.067900
     24 N5          -6.6610    13.0570   -17.8400 nd         1 V0D      -0.703000
     25 N9          -4.3700     9.3660   -18.0870 nh         1 V0D      -0.813400
     26 H102        -5.8520     8.2700   -17.0330 h1         1 V0D       0.060450
     27 H101        -4.3160     7.4440   -17.1610 h1         1 V0D       0.060450
     28 H131        -2.6630     6.7510   -20.8780 hc         1 V0D       0.043450
     29 H132        -3.6760     8.1860   -20.9120 hc         1 V0D       0.043450
     30 H17         -2.2790    14.0270   -17.1900 h4         1 V0D       0.044800
     31 H122        -4.9580     6.0460   -20.5930 hc         1 V0D       0.043450
     32 H121        -4.0750     5.7230   -19.1110 hc         1 V0D       0.043450
     33 H141        -2.2740     7.2680   -18.3370 hc         1 V0D       0.049700
     34 H142        -1.4260     8.2060   -19.5450 hc         1 V0D       0.049700
     35 H1         -10.4510    11.5140   -16.8840 hc         1 V0D       0.041367
     36 H11         -9.0350    10.6090   -16.3050 hc         1 V0D       0.041367
     37 H12         -9.1280    12.3680   -16.0600 hc         1 V0D       0.041367
     38 H111        -6.0870     7.9830   -19.6080 hc         1 V0D       0.049700
     39 H112        -6.2930     6.5730   -18.5820 hc         1 V0D       0.049700
     40 H151        -2.3000     9.5940   -17.6870 h1         1 V0D       0.060450
     41 H152        -2.8040    10.1040   -19.2970 h1         1 V0D       0.060450
     42 H20         -6.7820    15.4230   -18.4660 ha         1 V0D       0.123500
     43 H21         -7.3500    17.7770   -18.0580 ha         1 V0D       0.126500
     44 H23         -3.6600    18.3380   -15.9140 ha         1 V0D       0.126500
     45 H24         -3.0730    15.9660   -16.2730 ha         1 V0D       0.123500
     46 H7          -7.0070     9.7550   -18.2480 ha         1 V0D       0.135000
     47 H81         -9.0510    12.7070   -18.5580 hc         1 V0D       0.054200
     48 H82         -8.9590    10.9770   -18.8010 hc         1 V0D       0.054200
@<TRIPOS>BOND
     1     1     7 1   
     2     1    25 1   
     3     1    26 1   
     4     1    27 1   
     5     2     4 1   
     6     2     5 1   
     7     2    28 1   
     8     2    29 1   
     9     3     9 1   
    10     3    22 2   
    11     3    30 1   
    12     4     7 1   
    13     4    31 1   
    14     4    32 1   
    15     5     8 1   
    16     5    33 1   
    17     5    34 1   
    18     6    20 1   
    19     6    35 1   
    20     6    36 1   
    21     6    37 1   
    22     7    38 1   
    23     7    39 1   
    24     8    25 1   
    25     8    40 1   
    26     8    41 1   
    27     9    10 1   
    28     9    17 2   
    29    10    12 ar  
    30    10    16 ar  
    31    11    19 2   
    32    11    23 1   
    33    11    25 1   
    34    12    13 ar  
    35    12    42 1   
    36    13    14 ar  
    37    13    43 1   
    38    14    15 ar  
    39    14    21 1   
    40    15    16 ar  
    41    15    44 1   
    42    16    45 1   
    43    17    23 1   
    44    17    24 1   
    45    18    19 1   
    46    18    20 1   
    47    18    24 2   
    48    19    46 1   
    49    20    47 1   
    50    20    48 1   
    51    22    23 1   
@<TRIPOS>SUBSTRUCTURE
     1 V0D         1 TEMP              0 ****  ****    0 ROOT
