@<TRIPOS>MOLECULE
V0D
   48    51     1     0     0
SMALL
abcg2


@<TRIPOS>ATOM
      1 C10         -4.9170     8.0800   -17.7150 c3         1 V0D       0.232800
      2 C13         -3.3170     7.6840   -20.2920 c3         1 V0D      -0.072400
      3 C17         -3.2810    13.3220   -17.3350 cc         1 V0D       0.412500
      4 C12         -4.4380     6.7500   -19.8540 c3         1 V0D      -0.072400
      5 C14         -2.4410     8.1580   -19.1330 c3         1 V0D      -0.098400
      6 C1          -9.4490    12.0010   -16.8370 c3         1 V0D      -0.085100
      7 C11         -5.4860     7.3910   -18.9550 c3         1 V0D      -0.098400
      8 C15         -2.9050     9.4200   -18.4160 c3         1 V0D       0.232800
      9 C18         -4.5410    13.9260   -17.4660 cc         1 V0D      -0.256800
     10 C19         -4.8720    15.3400   -17.3260 ca         1 V0D       0.007200
     11 C2          -5.1010    10.4630   -17.9240 cc         1 V0D       0.418000
     12 C20         -6.1020    15.8600   -17.7440 ca         1 V0D      -0.086500
     13 C21         -6.4000    17.2090   -17.6080 ca         1 V0D      -0.150500
     14 C22         -5.4560    18.0500   -17.0540 ca         1 V0D       0.156000
     15 C23         -4.2280    17.5800   -16.6310 ca         1 V0D      -0.150500
     16 C24         -3.9470    16.2300   -16.7680 ca         1 V0D      -0.086500
     17 C4          -5.3960    12.8510   -17.7210 cd         1 V0D       0.439500
     18 C6          -7.2510    11.5950   -17.9850 cc         1 V0D       0.438300
     19 C7          -6.4910    10.4210   -18.0100 cd         1 V0D      -0.340000
     20 C8          -8.7460    11.5200   -18.1040 c3         1 V0D      -0.130700
     21 F25         -5.7370    19.3580   -16.9180 f          1 V0D      -0.185000
     22 N16         -3.3000    12.0170   -17.4950 nd         1 V0D      -0.602100
     23 N3          -4.5870    11.7220   -17.7510 na         1 V0D       0.067900
     24 N5          -6.7210    12.7950   -17.8600 nd         1 V0D      -0.703000
     25 N9          -4.3040     9.3800   -17.9650 nh         1 V0D      -0.813400
     26 H102        -5.7020     8.2170   -16.9710 h1         1 V0D       0.060450
     27 H101        -4.1720     7.4430   -17.2360 h1         1 V0D       0.060450
     28 H131        -2.6870     7.1500   -21.0070 hc         1 V0D       0.043450
     29 H132        -3.7230     8.5450   -20.8330 hc         1 V0D       0.043450
     30 H17         -2.3370    13.8040   -17.1260 h4         1 V0D       0.044800
     31 H122        -4.9370     6.3400   -20.7350 hc         1 V0D       0.043450
     32 H121        -3.9930     5.8970   -19.3300 hc         1 V0D       0.043450
     33 H141        -2.2920     7.3400   -18.4230 hc         1 V0D       0.049700
     34 H142        -1.4430     8.4050   -19.5030 hc         1 V0D       0.049700
     35 H1         -10.5310    11.9500   -16.9560 hc         1 V0D       0.041367
     36 H11         -9.1780    11.3860   -15.9780 hc         1 V0D       0.041367
     37 H12         -9.1820    13.0330   -16.6100 hc         1 V0D       0.041367
     38 H111        -6.0780     8.1060   -19.5320 hc         1 V0D       0.049700
     39 H112        -6.1830     6.6200   -18.6170 hc         1 V0D       0.049700
     40 H151        -2.2380     9.6090   -17.5740 h1         1 V0D       0.060450
     41 H152        -2.7920    10.2530   -19.1060 h1         1 V0D       0.060450
     42 H20         -6.8430    15.2050   -18.1780 ha         1 V0D       0.123500
     43 H21         -7.3560    17.5950   -17.9360 ha         1 V0D       0.126500
     44 H23         -3.5020    18.2530   -16.1950 ha         1 V0D       0.126500
     45 H24         -2.9870    15.8730   -16.4200 ha         1 V0D       0.123500
     46 H7          -6.9980     9.4820   -18.1550 ha         1 V0D       0.135000
     47 H81         -9.0600    12.1370   -18.9500 hc         1 V0D       0.054200
     48 H82         -9.0480    10.4960   -18.3310 hc         1 V0D       0.054200
@<TRIPOS>BOND
     1     1     7 1   
     2     1    25 1   
     3     1    26 1   
     4     1    27 1   
     5     2     4 1   
     6     2     5 1   
     7     2    28 1   
     8     2    29 1   
     9     3     9 1   
    10     3    22 2   
    11     3    30 1   
    12     4     7 1   
    13     4    31 1   
    14     4    32 1   
    15     5     8 1   
    16     5    33 1   
    17     5    34 1   
    18     6    20 1   
    19     6    35 1   
    20     6    36 1   
    21     6    37 1   
    22     7    38 1   
    23     7    39 1   
    24     8    25 1   
    25     8    40 1   
    26     8    41 1   
    27     9    10 1   
    28     9    17 2   
    29    10    12 ar  
    30    10    16 ar  
    31    11    19 2   
    32    11    23 1   
    33    11    25 1   
    34    12    13 ar  
    35    12    42 1   
    36    13    14 ar  
    37    13    43 1   
    38    14    15 ar  
    39    14    21 1   
    40    15    16 ar  
    41    15    44 1   
    42    16    45 1   
    43    17    23 1   
    44    17    24 1   
    45    18    19 1   
    46    18    20 1   
    47    18    24 2   
    48    19    46 1   
    49    20    47 1   
    50    20    48 1   
    51    22    23 1   
@<TRIPOS>SUBSTRUCTURE
     1 V0D         1 TEMP              0 ****  ****    0 ROOT
