@<TRIPOS>MOLECULE
V0E
   42    44     1     0     0
SMALL
No Charge or Current Charge


@<TRIPOS>ATOM
      1 C1         -51.7720    -8.1140    12.9900 c1         1 V0E       0.298900
      2 C2         -51.7440    -7.5540    11.6330 c3         1 V0E       0.040000
      3 C3         -52.7700    -6.4350    11.4690 ca         1 V0E      -0.128300
      4 C4         -54.0800    -6.7290    11.0400 ca         1 V0E      -0.057500
      5 C5         -55.0220    -5.6970    10.8910 ca         1 V0E      -0.168500
      6 C7         -55.3760    -2.0000    11.2490 c3         1 V0E       0.124600
      7 C9         -56.5700     0.2900    11.3510 c3         1 V0E       0.085000
      8 C11        -53.7870     2.4870     9.0230 ca         1 V0E       0.181400
      9 C12        -52.8960     3.2200     8.2160 ca         1 V0E      -0.093000
     10 C13        -51.5970     3.5200     8.6600 ca         1 V0E      -0.067000
     11 C15        -52.0530     2.3560    10.7420 ca         1 V0E      -0.035000
     12 C16        -53.3590     2.0560    10.2900 ca         1 V0E      -0.197600
     13 C19        -52.4170    -5.1000    11.7450 ca         1 V0E      -0.057500
     14 N1         -51.7730    -8.5770    14.0610 n1         1 V0E      -0.460000
     15 C6         -54.6710    -4.3660    11.1660 ca         1 V0E       0.152100
     16 O1         -55.6390    -3.3970    11.0010 os         1 V0E      -0.364100
     17 C8         -56.6730    -1.2030    10.9520 c3         1 V0E       0.162300
     18 O2         -57.7770    -1.8090    11.6420 oh         1 V0E      -0.657000
     19 N2         -55.5520     1.0500    10.5770 n          1 V0E      -0.341300
     20 C10        -55.8660     1.5330     9.3130 cc         1 V0E       0.502800
     21 N3         -55.0630     2.2300     8.5060 nd         1 V0E      -0.614100
     22 C14        -51.1760     3.0870     9.9260 ca         1 V0E       0.094000
     23 Cl1        -49.5520     3.4590    10.4890 cl         1 V0E      -0.188000
     24 C17        -54.2980     1.2840    11.1380 c          1 V0E       0.575600
     25 O3         -53.9830     0.8710    12.2470 o          1 V0E      -0.531000
     26 C18        -53.3600    -4.0680    11.5950 ca         1 V0E      -0.168500
     27 H2         -51.9320    -8.3630    10.9180 hc         1 V0E       0.074700
     28 H1         -50.7320    -7.1880    11.4280 hc         1 V0E       0.074700
     29 H3         -54.3690    -7.7550    10.8230 ha         1 V0E       0.117000
     30 H4         -56.0310    -5.9300    10.5600 ha         1 V0E       0.127000
     31 H5         -55.0800    -1.8410    12.2940 h1         1 V0E       0.057700
     32 H6         -54.5700    -1.6360    10.5990 h1         1 V0E       0.057700
     33 H9         -57.5490     0.7590    11.1870 h1         1 V0E       0.085200
     34 H12        -53.2170     3.5580     7.2340 ha         1 V0E       0.140000
     35 H13        -50.9200     4.0870     8.0260 ha         1 V0E       0.135000
     36 H14        -51.7150     2.0260    11.7210 ha         1 V0E       0.151000
     37 H16        -51.4090    -4.8590    12.0780 ha         1 V0E       0.117000
     38 H7         -56.8530    -1.2530     9.8700 h1         1 V0E       0.040700
     39 H8         -57.6220    -2.7800    11.5840 ho         1 V0E       0.468000
     40 H11        -56.8700     1.2930     8.9860 h5         1 V0E       0.052800
     41 H15        -53.0560    -3.0490    11.8180 ha         1 V0E       0.127000
     42 H10        -56.3670     0.3640    12.4270 h1         1 V0E       0.085200
@<TRIPOS>BOND
     1     1     2 1   
     2     1    14 3   
     3     2     3 1   
     4     2    27 1   
     5     2    28 1   
     6     3     4 ar  
     7     3    13 ar  
     8     4     5 ar  
     9     4    29 1   
    10     5    15 ar  
    11     5    30 1   
    12     6    16 1   
    13     6    17 1   
    14     6    31 1   
    15     6    32 1   
    16     7    17 1   
    17     7    19 1   
    18     7    33 1   
    19     7    42 1   
    20     8     9 ar  
    21     8    12 ar  
    22     8    21 1   
    23     9    10 ar  
    24     9    34 1   
    25    10    22 ar  
    26    10    35 1   
    27    11    12 ar  
    28    11    22 ar  
    29    11    36 1   
    30    12    24 1   
    31    13    26 ar  
    32    13    37 1   
    33    15    16 1   
    34    15    26 ar  
    35    17    18 1   
    36    17    38 1   
    37    18    39 1   
    38    19    20 1   
    39    19    24 1   
    40    20    21 2   
    41    20    40 1   
    42    22    23 1   
    43    24    25 2   
    44    26    41 1   
@<TRIPOS>SUBSTRUCTURE
     1 V0E         1 TEMP              0 ****  ****    0 ROOT
