@<TRIPOS>MOLECULE
V0E
   42    44     1     0     0
SMALL
abcg2


@<TRIPOS>ATOM
      1 C1         -51.9840    -8.1720    12.8680 c1         1 V0E       0.298900
      2 C2         -51.7120    -7.3960    11.6650 c3         1 V0E       0.040000
      3 C3         -52.7260    -6.2930    11.4780 ca         1 V0E      -0.128300
      4 C4         -53.9800    -6.5670    10.9350 ca         1 V0E      -0.057500
      5 C5         -54.9150    -5.5640    10.7660 ca         1 V0E      -0.168500
      6 C7         -55.3470    -1.9950    11.3190 c3         1 V0E       0.124600
      7 C9         -56.5120     0.2490    11.3920 c3         1 V0E       0.085000
      8 C11        -53.8190     2.3710     9.0270 ca         1 V0E       0.181400
      9 C12        -52.9550     3.0920     8.1930 ca         1 V0E      -0.093000
     10 C13        -51.6750     3.3830     8.6010 ca         1 V0E      -0.067000
     11 C15        -52.0580     2.2460    10.6980 ca         1 V0E      -0.035000
     12 C16        -53.3590     1.9510    10.2800 ca         1 V0E      -0.197600
     13 C19        -52.4370    -4.9890    11.8470 ca         1 V0E      -0.057500
     14 N1         -52.2120    -8.7760    13.8210 n1         1 V0E      -0.460000
     15 C6         -54.6130    -4.2530    11.1390 ca         1 V0E       0.152100
     16 O1         -55.5800    -3.3380    10.9330 os         1 V0E      -0.364100
     17 C8         -56.6150    -1.2220    10.9920 c3         1 V0E       0.162300
     18 O2         -57.7230    -1.7170    11.7000 oh         1 V0E      -0.657000
     19 N2         -55.5090     0.9790    10.6250 n          1 V0E      -0.341300
     20 C10        -55.8530     1.4440     9.3890 cc         1 V0E       0.502800
     21 N3         -55.0960     2.1020     8.5950 nd         1 V0E      -0.614100
     22 C14        -51.2340     2.9570     9.8580 ca         1 V0E       0.094000
     23 CL1        -49.6220     3.3380    10.3540 cl         1 V0E      -0.188000
     24 C17        -54.2470     1.1940    11.1580 c          1 V0E       0.575600
     25 O3         -53.9360     0.7780    12.2570 o          1 V0E      -0.531000
     26 C18        -53.3640    -3.9670    11.6830 ca         1 V0E      -0.168500
     27 H2         -51.7140    -8.0830    10.8160 hc         1 V0E       0.074700
     28 H1         -50.7020    -6.9920    11.7450 hc         1 V0E       0.074700
     29 H3         -54.2310    -7.5780    10.6370 ha         1 V0E       0.117000
     30 H4         -55.8850    -5.7880    10.3390 ha         1 V0E       0.127000
     31 H5         -55.1320    -1.9300    12.3920 h1         1 V0E       0.057700
     32 H6         -54.4930    -1.5870    10.7700 h1         1 V0E       0.057700
     33 H9         -57.4770     0.7240    11.2190 h1         1 V0E       0.085200
     34 H12        -53.3090     3.4180     7.2240 ha         1 V0E       0.140000
     35 H13        -51.0110     3.9410     7.9550 ha         1 V0E       0.135000
     36 H14        -51.7130     1.9170    11.6690 ha         1 V0E       0.151000
     37 H16        -51.4680    -4.7500    12.2700 ha         1 V0E       0.117000
     38 H7         -56.7820    -1.2780     9.9060 h1         1 V0E       0.040700
     39 H8         -57.8760    -2.6300    11.4360 ho         1 V0E       0.468000
     40 H11        -56.8700     1.2230     9.0840 h5         1 V0E       0.052800
     41 H15        -53.0910    -2.9630    11.9790 ha         1 V0E       0.127000
     42 H10        -56.2820     0.3470    12.4510 h1         1 V0E       0.085200
@<TRIPOS>BOND
     1     1     2 1   
     2     1    14 3   
     3     2     3 1   
     4     2    27 1   
     5     2    28 1   
     6     3     4 ar  
     7     3    13 ar  
     8     4     5 ar  
     9     4    29 1   
    10     5    15 ar  
    11     5    30 1   
    12     6    16 1   
    13     6    17 1   
    14     6    31 1   
    15     6    32 1   
    16     7    17 1   
    17     7    19 1   
    18     7    33 1   
    19     7    42 1   
    20     8     9 ar  
    21     8    12 ar  
    22     8    21 1   
    23     9    10 ar  
    24     9    34 1   
    25    10    22 ar  
    26    10    35 1   
    27    11    12 ar  
    28    11    22 ar  
    29    11    36 1   
    30    12    24 1   
    31    13    26 ar  
    32    13    37 1   
    33    15    16 1   
    34    15    26 ar  
    35    17    18 1   
    36    17    38 1   
    37    18    39 1   
    38    19    20 1   
    39    19    24 1   
    40    20    21 2   
    41    20    40 1   
    42    22    23 1   
    43    24    25 2   
    44    26    41 1   
@<TRIPOS>SUBSTRUCTURE
     1 V0E         1 TEMP              0 ****  ****    0 ROOT
