@<TRIPOS>MOLECULE
V0F
   46    47     1     0     0
SMALL
No Charge or Current Charge


@<TRIPOS>ATOM
      1 C01         24.5110    16.5340    16.1210 c          1 V0F       0.634700
      2 C03         26.6720    17.8240    16.3930 c3         1 V0F       0.109700
      3 C04         26.7590    19.0250    17.3830 c3         1 V0F      -0.094400
      4 C05         26.5700    20.4570    16.7990 c3         1 V0F      -0.066400
      5 C06         25.2470    20.6490    16.0250 c3         1 V0F      -0.189400
      6 C07         24.9690    22.0870    15.5890 c          1 V0F       0.573100
      7 C08         25.3270    22.4450    14.1390 c3         1 V0F      -0.182400
      8 C09         24.1820    22.1350    13.1320 c3         1 V0F      -0.063400
      9 C10         24.0310    20.6470    12.7050 c3         1 V0F      -0.052200
     10 C11         23.2100    19.7740    13.6430 c2         1 V0F      -0.183200
     11 C12         23.4540    18.4670    13.9100 ce         1 V0F      -0.218200
     12 C13         21.1950    17.6670    14.4890 ca         1 V0F      -0.204000
     13 C14         20.2930    16.8210    15.1330 ca         1 V0F       0.214100
     14 C15         20.7580    15.8680    16.0360 ca         1 V0F      -0.289000
     15 C16         22.1250    15.7760    16.3070 ca         1 V0F       0.269100
     16 C19         27.6570    17.9220    15.2110 c3         1 V0F      -0.105100
     17 N2          25.3020    17.6290    15.9090 ns         1 V0F      -0.480900
     18 O01         24.9450    15.5300    16.6720 o          1 V0F      -0.666100
     19 O07         24.4390    22.8960    16.3400 o          1 V0F      -0.525100
     20 O14         18.9640    16.9120    14.8600 oh         1 V0F      -0.526100
     21 O16         22.5290    14.8340    17.1960 oh         1 V0F      -0.566100
     22 C12A        22.5770    17.5930    14.7450 ca         1 V0F       0.063200
     23 C16A        23.0620    16.6410    15.6940 ca         1 V0F      -0.312600
     24 H031        26.9580    16.9310    16.9670 h1         1 V0F       0.086700
     25 H042        27.7380    18.9890    17.8770 hc         1 V0F       0.055200
     26 H041        26.0190    18.8700    18.1790 hc         1 V0F       0.055200
     27 H051        27.4150    20.7010    16.1420 hc         1 V0F       0.042200
     28 H052        26.6050    21.1740    17.6280 hc         1 V0F       0.042200
     29 H062        24.4090    20.2970    16.6390 hc         1 V0F       0.073200
     30 H061        25.3530    20.0590    15.1150 hc         1 V0F       0.073200
     31 H082        26.2030    21.8650    13.8260 hc         1 V0F       0.059200
     32 H081        25.5490    23.5170    14.0900 hc         1 V0F       0.059200
     33 H092        23.2270    22.5200    13.5120 hc         1 V0F       0.057200
     34 H091        24.3930    22.7100    12.2210 hc         1 V0F       0.057200
     35 H101        23.5440    20.6310    11.7220 hc         1 V0F       0.050200
     36 H102        25.0250    20.2120    12.5440 hc         1 V0F       0.050200
     37 H111        22.3420    20.2730    14.0800 ha         1 V0F       0.190000
     38 H121        24.3060    17.9610    13.4500 ha         1 V0F       0.183000
     39 H131        20.8160    18.3750    13.7570 ha         1 V0F       0.134000
     40 H151        20.0670    15.1930    16.5340 ha         1 V0F       0.134000
     41 H193        28.6830    18.0540    15.5750 hc         1 V0F       0.042367
     42 H192        27.6250    17.0040    14.6110 hc         1 V0F       0.042367
     43 H191        27.4110    18.7650    14.5550 hc         1 V0F       0.042367
     44 H021        24.8360    18.4100    15.4680 hn         1 V0F       0.324500
     45 H141        18.4980    16.2380    15.3980 ho         1 V0F       0.473000
     46 H161        23.5240    14.8800    17.1750 ho         1 V0F       0.534000
@<TRIPOS>BOND
     1     1    17 1   
     2     1    18 2   
     3     1    23 1   
     4     2     3 1   
     5     2    16 1   
     6     2    17 1   
     7     2    24 1   
     8     3     4 1   
     9     3    25 1   
    10     3    26 1   
    11     4     5 1   
    12     4    27 1   
    13     4    28 1   
    14     5     6 1   
    15     5    29 1   
    16     5    30 1   
    17     6     7 1   
    18     6    19 2   
    19     7     8 1   
    20     7    31 1   
    21     7    32 1   
    22     8     9 1   
    23     8    33 1   
    24     8    34 1   
    25     9    10 1   
    26     9    35 1   
    27     9    36 1   
    28    10    11 2   
    29    10    37 1   
    30    11    22 1   
    31    11    38 1   
    32    12    13 ar  
    33    12    22 ar  
    34    12    39 1   
    35    13    14 ar  
    36    13    20 1   
    37    14    15 ar  
    38    14    40 1   
    39    15    21 1   
    40    15    23 ar  
    41    16    41 1   
    42    16    42 1   
    43    16    43 1   
    44    17    44 1   
    45    20    45 1   
    46    21    46 1   
    47    22    23 ar  
@<TRIPOS>SUBSTRUCTURE
     1 V0F         1 TEMP              0 ****  ****    0 ROOT
