@<TRIPOS>MOLECULE
V0F
   46    47     1     0     0
SMALL
abcg2


@<TRIPOS>ATOM
      1 C01         24.5250    16.8350    16.0920 c          1 V0F       0.634700
      2 C03         26.7520    17.9000    16.1640 c3         1 V0F       0.109700
      3 C04         26.8360    18.9520    17.2810 c3         1 V0F      -0.094400
      4 C05         26.5030    20.3960    16.8970 c3         1 V0F      -0.066400
      5 C06         25.0000    20.6980    16.7930 c3         1 V0F      -0.189400
      6 C07         24.5250    21.6270    15.6970 c          1 V0F       0.573100
      7 C08         25.3000    21.6900    14.3980 c3         1 V0F      -0.182400
      8 C09         24.4580    21.9550    13.1550 c3         1 V0F      -0.063400
      9 C10         23.9270    20.6640    12.5230 c3         1 V0F      -0.052200
     10 C11         23.1400    19.8140    13.4640 c2         1 V0F      -0.183200
     11 C12         23.4130    18.5330    13.7260 ce         1 V0F      -0.218200
     12 C13         21.2260    17.6850    14.3410 ca         1 V0F      -0.204000
     13 C14         20.3520    16.8750    15.0700 ca         1 V0F       0.214100
     14 C15         20.8460    16.0290    16.0440 ca         1 V0F      -0.289000
     15 C16         22.2130    16.0040    16.3170 ca         1 V0F       0.269100
     16 C19         27.6980    18.1790    15.0040 c3         1 V0F      -0.105100
     17 N2          25.3980    17.7420    15.6480 ns         1 V0F      -0.480900
     18 O01         24.8870    15.9920    16.9370 o          1 V0F      -0.666100
     19 O07         23.5240    22.2910    15.8580 o          1 V0F      -0.525100
     20 O14         19.0500    16.9450    14.7620 oh         1 V0F      -0.526100
     21 O16         22.6100    15.1610    17.2620 oh         1 V0F      -0.566100
     22 C12A        22.5850    17.6780    14.6020 ca         1 V0F       0.063200
     23 C16A        23.1180    16.8470    15.6200 ca         1 V0F      -0.312600
     24 H031        27.0370    16.9460    16.6060 h1         1 V0F       0.086700
     25 H042        27.8610    18.9210    17.6600 hc         1 V0F       0.055200
     26 H041        26.1990    18.6350    18.1120 hc         1 V0F       0.055200
     27 H051        27.0280    20.6540    15.9760 hc         1 V0F       0.042200
     28 H052        26.9300    21.0570    17.6530 hc         1 V0F       0.042200
     29 H062        24.6230    21.0770    17.7440 hc         1 V0F       0.073200
     30 H061        24.4370    19.7760    16.6190 hc         1 V0F       0.073200
     31 H082        25.8970    20.7860    14.2550 hc         1 V0F       0.059200
     32 H081        26.0350    22.4920    14.5390 hc         1 V0F       0.059200
     33 H092        23.6340    22.6300    13.3920 hc         1 V0F       0.057200
     34 H091        25.0680    22.4680    12.4090 hc         1 V0F       0.057200
     35 H101        23.2930    20.9310    11.6710 hc         1 V0F       0.050200
     36 H102        24.7630    20.0840    12.1230 hc         1 V0F       0.050200
     37 H111        22.2980    20.2870    13.9630 ha         1 V0F       0.190000
     38 H121        24.2580    18.0650    13.2240 ha         1 V0F       0.183000
     39 H131        20.8350    18.2950    13.5380 ha         1 V0F       0.134000
     40 H151        20.1890    15.3750    16.6060 ha         1 V0F       0.134000
     41 H193        28.7120    18.3340    15.3730 hc         1 V0F       0.042367
     42 H192        27.7150    17.3390    14.3100 hc         1 V0F       0.042367
     43 H191        27.4100    19.0690    14.4420 hc         1 V0F       0.042367
     44 H021        25.0810    18.4370    14.9910 hn         1 V0F       0.324500
     45 H141        18.5350    16.3340    15.3020 ho         1 V0F       0.473000
     46 H161        23.6040    15.2800    17.3320 ho         1 V0F       0.534000
@<TRIPOS>BOND
     1     1    17 1   
     2     1    18 2   
     3     1    23 1   
     4     2     3 1   
     5     2    16 1   
     6     2    17 1   
     7     2    24 1   
     8     3     4 1   
     9     3    25 1   
    10     3    26 1   
    11     4     5 1   
    12     4    27 1   
    13     4    28 1   
    14     5     6 1   
    15     5    29 1   
    16     5    30 1   
    17     6     7 1   
    18     6    19 2   
    19     7     8 1   
    20     7    31 1   
    21     7    32 1   
    22     8     9 1   
    23     8    33 1   
    24     8    34 1   
    25     9    10 1   
    26     9    35 1   
    27     9    36 1   
    28    10    11 2   
    29    10    37 1   
    30    11    22 1   
    31    11    38 1   
    32    12    13 ar  
    33    12    22 ar  
    34    12    39 1   
    35    13    14 ar  
    36    13    20 1   
    37    14    15 ar  
    38    14    40 1   
    39    15    21 1   
    40    15    23 ar  
    41    16    41 1   
    42    16    42 1   
    43    16    43 1   
    44    17    44 1   
    45    20    45 1   
    46    21    46 1   
    47    22    23 ar  
@<TRIPOS>SUBSTRUCTURE
     1 V0F         1 TEMP              0 ****  ****    0 ROOT
