@<TRIPOS>MOLECULE
V0G
   71    75     1     0     0
SMALL
bcc


@<TRIPOS>ATOM
      1 C13        119.7230    97.9040    79.6910 ca         1 V0G      -0.058500
      2 C15        120.5320    98.0250    77.4280 ca         1 V0G       0.101600
      3 C17        122.7870    98.6560    76.5740 c          1 V0G       0.675100
      4 C20        125.3890    97.0850    75.8000 c3         1 V0G       0.182800
      5 C22        125.2080    95.9940    73.6350 c3         1 V0G       0.172600
      6 C26        118.2700    97.3050    77.8910 ca         1 V0G      -0.058500
      7 C28        114.9760    96.2970    81.8750 ca         1 V0G      -0.176000
      8 C02        109.8940    90.7180    80.7990 ca         1 V0G      -0.286200
      9 C03        110.4130    90.8410    79.5200 ca         1 V0G       0.492200
     10 C05        111.7900    92.4790    80.2120 ca         1 V0G       0.921900
     11 C07        113.4580    94.3130    80.5890 ca         1 V0G       0.205600
     12 C08        114.6020    94.8430    79.9920 ca         1 V0G      -0.252000
     13 C09        115.3630    95.8280    80.6180 ca         1 V0G       0.104600
     14 C12        118.4800    97.4460    79.2630 ca         1 V0G      -0.188600
     15 C14        120.7450    98.1850    78.8000 ca         1 V0G      -0.183000
     16 C18        123.5160    98.8080    75.2580 c3         1 V0G      -0.156400
     17 C19        125.0050    98.4980    75.3450 c3         1 V0G      -0.098400
     18 C23        123.5600    95.5050    75.3190 c3         1 V0G       0.172600
     19 C25        119.2760    97.5910    76.9910 ca         1 V0G      -0.183000
     20 C29        113.8340    95.7640    82.4550 ca         1 V0G      -0.082000
     21 C30        113.0660    94.7880    81.8420 ca         1 V0G      -0.178000
     22 C32        110.4010    91.5650    81.7920 ca         1 V0G       0.626100
     23 C33        109.9900    91.5700    83.1830 cc         1 V0G      -0.247000
     24 C34        108.7540    91.2460    83.7010 cd         1 V0G      -0.053100
     25 C36        109.9820    91.8750    85.4490 ca         1 V0G      -0.064200
     26 C37        110.4360    92.1690    86.7320 ca         1 V0G      -0.144000
     27 C38        111.7470    92.5840    86.8590 ca         1 V0G      -0.110000
     28 C39        112.5830    92.6920    85.7370 ca         1 V0G      -0.155000
     29 C40        112.1250    92.3970    84.4680 ca         1 V0G      -0.070000
     30 C41        110.7970    91.9860    84.3040 ca         1 V0G      -0.055800
     31 N04        111.3480    91.7130    79.2070 nb         1 V0G      -0.770000
     32 N10        116.4820    96.2790    79.9120 ns         1 V0G      -0.470100
     33 N16        121.4880    98.2630    76.4460 ns         1 V0G      -0.476100
     34 N21        124.9050    95.9490    75.0430 n3         1 V0G      -0.753600
     35 N31        111.3600    92.4340    81.4600 nb         1 V0G      -0.768000
     36 N35        108.7530    91.4350    85.0370 na         1 V0G      -0.160400
     37 O24        123.3170    98.8910    77.6440 o          1 V0G      -0.570100
     38 O27        117.4810    97.6890    81.3920 o          1 V0G      -0.579100
     39 H1         119.9100    98.0380    80.7480 ha         1 V0G       0.143000
     40 H2         125.0920    96.9410    76.8420 h1         1 V0G       0.058200
     41 H3         126.4840    97.0440    75.7960 h1         1 V0G       0.058200
     42 H4         126.2590    96.2510    73.4860 h1         1 V0G       0.025533
     43 H5         125.0410    95.0110    73.1870 h1         1 V0G       0.025533
     44 H6         124.6050    96.7170    73.0640 h1         1 V0G       0.025533
     45 H7         117.3120    96.9950    77.4930 ha         1 V0G       0.143000
     46 H8         115.5410    97.0510    82.3960 ha         1 V0G       0.168000
     47 H9         110.0520    90.1970    78.7240 h4         1 V0G       0.034100
     48 H10        114.9030    94.4780    79.0160 ha         1 V0G       0.123000
     49 H11        121.6930    98.5250    79.1800 ha         1 V0G       0.151000
     50 H12        123.3890    99.8520    74.9490 hc         1 V0G       0.059700
     51 H13        123.0440    98.2140    74.4730 hc         1 V0G       0.059700
     52 H14        125.4400    98.6980    74.3620 hc         1 V0G       0.053700
     53 H15        125.4840    99.2030    76.0280 hc         1 V0G       0.053700
     54 H16        123.4330    94.4770    74.9730 h1         1 V0G       0.025533
     55 H17        123.3760    95.5110    76.3950 h1         1 V0G       0.025533
     56 H18        122.7640    96.0960    74.8430 h1         1 V0G       0.025533
     57 H19        119.0850    97.4790    75.9300 ha         1 V0G       0.151000
     58 H20        113.5300    96.1280    83.4280 ha         1 V0G       0.135000
     59 H21        112.1870    94.4050    82.3310 ha         1 V0G       0.171000
     60 H22        107.8540    90.9270    83.2050 h4         1 V0G       0.173000
     61 H23        109.7870    92.0720    87.5930 ha         1 V0G       0.131000
     62 H24        112.1370    92.8240    87.8400 ha         1 V0G       0.130000
     63 H25        113.6080    93.0140    85.8720 ha         1 V0G       0.132000
     64 H26        112.7830    92.4850    83.6160 ha         1 V0G       0.153000
     65 H27        113.0660    93.2450    78.8960 hn         1 V0G       0.454800
     66 H28        116.6170    95.8290    79.0200 hn         1 V0G       0.316500
     67 H29        121.1690    98.1060    75.5020 hn         1 V0G       0.316500
     68 H31        107.9590    91.2710    85.6350 hn         1 V0G       0.302700
     69 C11        117.4400    97.1640    80.2920 c          1 V0G       0.695700
     70 N06        112.7690    93.3550    79.8530 nu         1 V0G      -0.735300
     71 CL01       108.7060    89.5010    81.0890 cl         1 V0G      -0.092400
@<TRIPOS>BOND
     1     1    14 ar  
     2     1    15 ar  
     3     1    39 1   
     4     2    15 ar  
     5     2    19 ar  
     6     2    33 1   
     7     3    16 1   
     8     3    33 1   
     9     3    37 2   
    10     4    17 1   
    11     4    34 1   
    12     4    40 1   
    13     4    41 1   
    14     5    34 1   
    15     5    42 1   
    16     5    43 1   
    17     5    44 1   
    18     6    14 ar  
    19     6    19 ar  
    20     6    45 1   
    21     7    13 ar  
    22     7    20 ar  
    23     7    46 1   
    24     8     9 ar  
    25     8    22 ar  
    26     8    71 1   
    27     9    31 ar  
    28     9    47 1   
    29    10    31 ar  
    30    10    35 ar  
    31    10    70 1   
    32    11    12 ar  
    33    11    21 ar  
    34    11    70 1   
    35    12    13 ar  
    36    12    48 1   
    37    13    32 1   
    38    14    69 1   
    39    15    49 1   
    40    16    17 1   
    41    16    50 1   
    42    16    51 1   
    43    17    52 1   
    44    17    53 1   
    45    18    34 1   
    46    18    54 1   
    47    18    55 1   
    48    18    56 1   
    49    19    57 1   
    50    20    21 ar  
    51    20    58 1   
    52    21    59 1   
    53    22    23 1   
    54    22    35 ar  
    55    23    24 2   
    56    23    30 1   
    57    24    36 1   
    58    24    60 1   
    59    25    26 ar  
    60    25    30 ar  
    61    25    36 1   
    62    26    27 ar  
    63    26    61 1   
    64    27    28 ar  
    65    27    62 1   
    66    28    29 ar  
    67    28    63 1   
    68    29    30 ar  
    69    29    64 1   
    70    32    66 1   
    71    32    69 1   
    72    33    67 1   
    73    36    68 1   
    74    38    69 2   
    75    65    70 1   
@<TRIPOS>SUBSTRUCTURE
     1 V0G         1 TEMP              0 ****  ****    0 ROOT
