@<TRIPOS>MOLECULE
V0G
   71    75     1     0     0
SMALL
No Charge or Current Charge


@<TRIPOS>ATOM
      1 C13        119.5340    98.5960    79.4820 ca         1 V0G      -0.040500
      2 C15        120.5560    98.0870    77.3210 ca         1 V0G       0.009000
      3 C17        122.6820    99.0400    76.2330 c          1 V0G       0.608100
      4 C20        125.0450    96.9750    76.1870 c3         1 V0G       0.182800
      5 C22        125.4600    95.3150    74.3600 c3         1 V0G       0.172600
      6 C26        118.4610    97.0130    77.9860 ca         1 V0G      -0.040500
      7 C28        114.8020    96.6750    81.8770 ca         1 V0G      -0.158000
      8 C02        109.7940    90.9040    80.7090 ca         1 V0G      -0.064000
      9 C03        110.0840    91.2750    79.3840 ca         1 V0G       0.163900
     10 C05        111.4980    92.9020    80.1440 ca         1 V0G       0.395900
     11 C07        113.1770    94.8100    80.5300 ca         1 V0G       0.344000
     12 C08        114.3500    95.2950    79.9330 ca         1 V0G      -0.234000
     13 C09        115.1770    96.2230    80.5930 ca         1 V0G       0.012000
     14 C12        118.4640    97.7120    79.2180 ca         1 V0G      -0.188600
     15 C14        120.5670    98.7810    78.5470 ca         1 V0G      -0.165000
     16 C18        123.5370    98.8000    74.9790 c3         1 V0G      -0.156400
     17 C19        124.9550    98.2550    75.3040 c3         1 V0G      -0.098400
     18 C23        123.2230    95.4120    75.4170 c3         1 V0G       0.172600
     19 C25        119.4970    97.2020    77.0560 ca         1 V0G      -0.165000
     20 C29        113.6210    96.2070    82.4760 ca         1 V0G      -0.064000
     21 C30        112.8090    95.2810    81.8030 ca         1 V0G      -0.160000
     22 C32        110.4330    91.6340    81.7440 ca         1 V0G       0.297800
     23 C33        110.2290    91.3560    83.1730 cc         1 V0G      -0.247000
     24 C34        108.9600    91.1630    83.7150 cd         1 V0G      -0.103100
     25 C36        110.4000    91.4050    85.4170 ca         1 V0G      -0.064200
     26 C37        110.9910    91.5310    86.6830 ca         1 V0G      -0.126000
     27 C38        112.3720    91.8120    86.7490 ca         1 V0G      -0.092000
     28 C39        113.1290    91.9590    85.5620 ca         1 V0G      -0.137000
     29 C40        112.5100    91.8270    84.3010 ca         1 V0G      -0.052000
     30 C41        111.1330    91.5530    84.2720 ca         1 V0G      -0.055800
     31 N04        110.9390    92.2750    79.0970 nb         1 V0G      -0.244000
     32 N10        116.3500    96.6500    79.9130 ns         1 V0G      -0.144000
     33 N16        121.5680    98.2170    76.3320 ns         1 V0G      -0.150000
     34 N21        124.6720    95.6750    75.5600 n3         1 V0G      -0.753600
     35 N31        111.2980    92.6230    81.4420 nb         1 V0G      -0.242000
     36 N35        109.0690    91.1440    85.1270 na         1 V0G      -0.210700
     37 O24        122.9700    99.9140    77.0420 o          1 V0G      -0.570100
     38 O27        117.3940    98.1560    81.3110 o          1 V0G      -0.579100
     39 H1         119.5720    99.1480    80.4190 ha         1 V0G       0.125000
     40 H2         124.4570    97.1310    77.1020 h1         1 V0G       0.058200
     41 H3         126.0900    96.9000    76.5210 h1         1 V0G       0.058200
     42 H4         126.5350    95.4390    74.5480 h1         1 V0G       0.025533
     43 H5         125.2840    94.2670    74.0830 h1         1 V0G       0.025533
     44 H6         125.1830    95.9440    73.5040 h1         1 V0G       0.025533
     45 H7         117.6650    96.3180    77.7290 ha         1 V0G       0.125000
     46 H8         115.4050    97.3910    82.4270 ha         1 V0G       0.150000
     47 H9         109.6380    90.7530    78.5390 h4         1 V0G       0.034100
     48 H10        114.6320    94.9390    78.9450 ha         1 V0G       0.105000
     49 H11        121.3690    99.4650    78.8020 ha         1 V0G       0.133000
     50 H12        123.6610    99.7620    74.4690 hc         1 V0G       0.059700
     51 H13        123.0290    98.1140    74.2930 hc         1 V0G       0.059700
     52 H14        125.5060    98.1000    74.3690 hc         1 V0G       0.053700
     53 H15        125.4990    99.0480    75.8330 hc         1 V0G       0.053700
     54 H16        123.0500    94.3500    75.2010 h1         1 V0G       0.025533
     55 H17        122.6890    95.6540    76.3460 h1         1 V0G       0.025533
     56 H18        122.7880    95.9920    74.5960 h1         1 V0G       0.025533
     57 H19        119.4720    96.6520    76.1180 ha         1 V0G       0.133000
     58 H20        113.3310    96.5680    83.4610 ha         1 V0G       0.117000
     59 H21        111.8890    94.9530    82.2720 ha         1 V0G       0.153000
     60 H22        107.9970    91.0740    83.2180 h4         1 V0G       0.223000
     61 H23        110.4020    91.4170    87.5900 ha         1 V0G       0.113000
     62 H24        112.8570    91.9150    87.7170 ha         1 V0G       0.112000
     63 H25        114.1940    92.1720    85.6220 ha         1 V0G       0.114000
     64 H26        113.0860    91.9320    83.3850 ha         1 V0G       0.135000
     65 H27        112.6320    93.8850    78.8140 hn         1 V0G       0.510000
     66 H28        116.4660    96.2200    79.0070 hn         1 V0G       0.150000
     67 H29        121.4600    97.5780    75.5550 hn         1 V0G       0.150000
     68 H31        108.3130    91.0200    85.7940 hn         1 V0G       0.353000
     69 C11        117.3650    97.5380    80.2520 c          1 V0G       0.628700
     70 N06        112.4080    93.8950    79.8080 nu         1 V0G      -0.928900
     71 Cl01       108.7190    89.5320    81.0010 cl         1 V0G      -0.184000
@<TRIPOS>BOND
     1     1    14 ar  
     2     1    15 ar  
     3     1    39 1   
     4     2    15 ar  
     5     2    19 ar  
     6     2    33 1   
     7     3    16 1   
     8     3    33 1   
     9     3    37 2   
    10     4    17 1   
    11     4    34 1   
    12     4    40 1   
    13     4    41 1   
    14     5    34 1   
    15     5    42 1   
    16     5    43 1   
    17     5    44 1   
    18     6    14 ar  
    19     6    19 ar  
    20     6    45 1   
    21     7    13 ar  
    22     7    20 ar  
    23     7    46 1   
    24     8     9 ar  
    25     8    22 ar  
    26     8    71 1   
    27     9    31 ar  
    28     9    47 1   
    29    10    31 ar  
    30    10    35 ar  
    31    10    70 1   
    32    11    12 ar  
    33    11    21 ar  
    34    11    70 1   
    35    12    13 ar  
    36    12    48 1   
    37    13    32 1   
    38    14    69 1   
    39    15    49 1   
    40    16    17 1   
    41    16    50 1   
    42    16    51 1   
    43    17    52 1   
    44    17    53 1   
    45    18    34 1   
    46    18    54 1   
    47    18    55 1   
    48    18    56 1   
    49    19    57 1   
    50    20    21 ar  
    51    20    58 1   
    52    21    59 1   
    53    22    23 1   
    54    22    35 ar  
    55    23    24 2   
    56    23    30 1   
    57    24    36 1   
    58    24    60 1   
    59    25    26 ar  
    60    25    30 ar  
    61    25    36 1   
    62    26    27 ar  
    63    26    61 1   
    64    27    28 ar  
    65    27    62 1   
    66    28    29 ar  
    67    28    63 1   
    68    29    30 ar  
    69    29    64 1   
    70    32    66 1   
    71    32    69 1   
    72    33    67 1   
    73    36    68 1   
    74    38    69 2   
    75    65    70 1   
@<TRIPOS>SUBSTRUCTURE
     1 V0G         1 TEMP              0 ****  ****    0 ROOT
