@<TRIPOS>MOLECULE
V0H
   43    45     1     0     0
SMALL
No Charge or Current Charge


@<TRIPOS>ATOM
      1 N1         -51.5910    -7.3210    11.8300 n1         1 V0H      -0.435000
      2 C9         -57.2000     0.7530    11.8070 c3         1 V0H       0.052000
      3 C10        -55.8660     1.0670     9.7260 cc         1 V0H       0.508800
      4 O4         -54.7180     0.0970    12.9400 o          1 V0H      -0.532000
      5 C8         -58.0860    -0.5090    11.5740 c3         1 V0H       0.152300
      6 C5         -54.7250    -3.2790    11.7090 ca         1 V0H      -0.133500
      7 C6         -55.3120    -2.7020    10.5620 ca         1 V0H       0.120100
      8 C4         -53.4200    -3.8040    11.6470 ca         1 V0H      -0.118000
      9 C7         -57.3100    -1.8420    11.7750 c3         1 V0H       0.164600
     10 C3         -52.6950    -3.7660    10.4330 ca         1 V0H       0.088100
     11 C2         -50.6770    -4.8840    11.3820 c3         1 V0H       0.232700
     12 C1         -51.1900    -6.2470    11.6170 c1         1 V0H       0.255900
     13 O2         -56.5490    -2.0910    10.5710 os         1 V0H      -0.359100
     14 O1         -51.4010    -4.2370    10.3080 os         1 V0H      -0.327100
     15 O3         -59.2110    -0.4660    12.4690 oh         1 V0H      -0.649000
     16 N2         -55.9040     0.7360    11.0730 n          1 V0H      -0.323300
     17 C11        -53.6300     0.5460     9.5280 ca         1 V0H       0.181400
     18 C12        -52.4900     0.4000     8.7140 ca         1 V0H      -0.098000
     19 C13        -51.2830    -0.0930     9.2410 ca         1 V0H      -0.071000
     20 C14        -51.2050    -0.4390    10.5970 ca         1 V0H       0.092000
     21 C15        -52.3270    -0.2830    11.4230 ca         1 V0H      -0.031000
     22 C16        -53.5390     0.2090    10.8890 ca         1 V0H      -0.191600
     23 C17        -54.7440     0.3410    11.7400 c          1 V0H       0.585600
     24 C18        -54.5950    -2.6830     9.3560 ca         1 V0H      -0.133500
     25 C19        -53.2930    -3.2090     9.2920 ca         1 V0H      -0.118000
     26 N3         -54.8020     1.0110     8.9200 nd         1 V0H      -0.618100
     27 Cl1        -49.7050    -1.0760    11.2600 cl         1 V0H      -0.192000
     28 H10        -57.0180     0.8650    12.8840 h1         1 V0H       0.073200
     29 H9         -57.7640     1.6410    11.4940 h1         1 V0H       0.073200
     30 H11        -56.8200     1.3900     9.3250 h5         1 V0H       0.044800
     31 H7         -58.4470    -0.4900    10.5360 h1         1 V0H       0.046700
     32 H4         -55.2560    -3.3220    12.6550 ha         1 V0H       0.126500
     33 H3         -52.9900    -4.2240    12.5510 ha         1 V0H       0.126000
     34 H5         -58.0080    -2.6680    11.9600 h1         1 V0H       0.059700
     35 H6         -56.6680    -1.7260    12.6560 h1         1 V0H       0.059700
     36 H2         -49.6180    -4.9710    11.1140 h1         1 V0H       0.079700
     37 H1         -50.7310    -4.3020    12.3100 h1         1 V0H       0.079700
     38 H8         -59.8350     0.2140    12.1300 ho         1 V0H       0.452000
     39 H12        -52.5480     0.6580     7.6600 ha         1 V0H       0.138000
     40 H13        -50.4150    -0.2120     8.5980 ha         1 V0H       0.133000
     41 H14        -52.2560    -0.5610    12.4730 ha         1 V0H       0.152000
     42 H15        -55.0400    -2.2320     8.4730 ha         1 V0H       0.126500
     43 H16        -52.7400    -3.1720     8.3570 ha         1 V0H       0.126000
@<TRIPOS>BOND
     1     1    12 3   
     2     2     5 1   
     3     2    16 1   
     4     2    28 1   
     5     2    29 1   
     6     3    16 1   
     7     3    26 2   
     8     3    30 1   
     9     4    23 2   
    10     5     9 1   
    11     5    15 1   
    12     5    31 1   
    13     6     7 ar  
    14     6     8 ar  
    15     6    32 1   
    16     7    13 1   
    17     7    24 ar  
    18     8    10 ar  
    19     8    33 1   
    20     9    13 1   
    21     9    34 1   
    22     9    35 1   
    23    10    14 1   
    24    10    25 ar  
    25    11    12 1   
    26    11    14 1   
    27    11    36 1   
    28    11    37 1   
    29    15    38 1   
    30    16    23 1   
    31    17    18 ar  
    32    17    22 ar  
    33    17    26 1   
    34    18    19 ar  
    35    18    39 1   
    36    19    20 ar  
    37    19    40 1   
    38    20    21 ar  
    39    20    27 1   
    40    21    22 ar  
    41    21    41 1   
    42    22    23 1   
    43    24    25 ar  
    44    24    42 1   
    45    25    43 1   
@<TRIPOS>SUBSTRUCTURE
     1 V0H         1 TEMP              0 ****  ****    0 ROOT
