@<TRIPOS>MOLECULE
V0H
   43    45     1     0     0
SMALL
bcc


@<TRIPOS>ATOM
      1 N1         -52.5450    -8.0510    11.4230 n1         1 V0H      -0.345800
      2 C9         -57.1660     0.6570    11.8010 c3         1 V0H       0.052000
      3 C10        -56.1360     1.3500     9.7210 cc         1 V0H       0.508800
      4 O4         -54.5730     0.2190    12.6560 o          1 V0H      -0.607500
      5 C8         -57.8200    -0.6960    11.4820 c3         1 V0H       0.129100
      6 C5         -54.6560    -3.6120    11.8900 ca         1 V0H      -0.151500
      7 C6         -54.8520    -2.7100    10.8550 ca         1 V0H       0.120100
      8 C4         -53.4900    -4.3750    11.9510 ca         1 V0H      -0.136000
      9 C7         -56.9110    -1.8910    11.7410 c3         1 V0H       0.141400
     10 C3         -52.5170    -4.2400    10.9740 ca         1 V0H       0.088100
     11 C2         -51.1020    -5.9170    11.8940 c3         1 V0H       0.209500
     12 C1         -51.9190    -7.1110    11.6330 c1         1 V0H       0.166700
     13 O2         -55.9320    -1.9100    10.7230 os         1 V0H      -0.335900
     14 O1         -51.3300    -4.9150    10.9500 os         1 V0H      -0.303900
     15 O3         -58.9400    -0.8720    12.3130 oh         1 V0H      -0.586800
     16 N2         -55.9740     0.9160    11.0020 n          1 V0H      -0.390300
     17 C11        -53.9320     1.1730     9.2410 ca         1 V0H       0.181400
     18 C12        -52.8900     1.2610     8.3080 ca         1 V0H      -0.116000
     19 C13        -51.6060     0.9210     8.6630 ca         1 V0H      -0.089000
     20 C14        -51.3380     0.4910     9.9670 ca         1 V0H       0.000400
     21 C15        -52.3380     0.3990    10.9050 ca         1 V0H      -0.049000
     22 C16        -53.6420     0.7400    10.5410 ca         1 V0H      -0.191600
     23 C17        -54.7250     0.5940    11.5090 c          1 V0H       0.728100
     24 C18        -53.8760    -2.5960     9.8620 ca         1 V0H      -0.151500
     25 C19        -52.7240    -3.3510     9.9200 ca         1 V0H      -0.136000
     26 N3         -55.2080     1.4990     8.8520 nd         1 V0H      -0.618100
     27 CL1        -49.7180     0.0560    10.3920 cl         1 V0H      -0.100400
     28 H10        -56.9000     0.7050    12.8550 h1         1 V0H       0.073200
     29 H9         -57.8820     1.4580    11.6060 h1         1 V0H       0.073200
     30 H11        -57.1580     1.5910     9.4470 h5         1 V0H       0.044800
     31 H7         -58.1070    -0.7080    10.4210 h1         1 V0H       0.046700
     32 H4         -55.3920    -3.7470    12.6720 ha         1 V0H       0.144500
     33 H3         -53.3810    -5.0570    12.7830 ha         1 V0H       0.144000
     34 H5         -57.5070    -2.8100    11.7180 h1         1 V0H       0.059700
     35 H6         -56.4560    -1.8100    12.7350 h1         1 V0H       0.059700
     36 H2         -50.0520    -6.2010    11.8120 h1         1 V0H       0.079700
     37 H1         -51.2710    -5.5930    12.9260 h1         1 V0H       0.079700
     38 H8         -59.6100    -0.2230    12.0760 ho         1 V0H       0.413000
     39 H12        -53.1110     1.5940     7.3030 ha         1 V0H       0.156000
     40 H13        -50.8060     0.9850     7.9380 ha         1 V0H       0.151000
     41 H14        -52.1280     0.0560    11.9090 ha         1 V0H       0.170000
     42 H15        -54.0260    -1.9060     9.0410 ha         1 V0H       0.144500
     43 H16        -51.9730    -3.2470     9.1480 ha         1 V0H       0.144000
@<TRIPOS>BOND
     1     1    12 3   
     2     2     5 1   
     3     2    16 1   
     4     2    28 1   
     5     2    29 1   
     6     3    16 1   
     7     3    26 2   
     8     3    30 1   
     9     4    23 2   
    10     5     9 1   
    11     5    15 1   
    12     5    31 1   
    13     6     7 ar  
    14     6     8 ar  
    15     6    32 1   
    16     7    13 1   
    17     7    24 ar  
    18     8    10 ar  
    19     8    33 1   
    20     9    13 1   
    21     9    34 1   
    22     9    35 1   
    23    10    14 1   
    24    10    25 ar  
    25    11    12 1   
    26    11    14 1   
    27    11    36 1   
    28    11    37 1   
    29    15    38 1   
    30    16    23 1   
    31    17    18 ar  
    32    17    22 ar  
    33    17    26 1   
    34    18    19 ar  
    35    18    39 1   
    36    19    20 ar  
    37    19    40 1   
    38    20    21 ar  
    39    20    27 1   
    40    21    22 ar  
    41    21    41 1   
    42    22    23 1   
    43    24    25 ar  
    44    24    42 1   
    45    25    43 1   
@<TRIPOS>SUBSTRUCTURE
     1 V0H         1 TEMP              0 ****  ****    0 ROOT
