@<TRIPOS>MOLECULE
V0J
   90    95     1     0     0
SMALL
No Charge or Current Charge


@<TRIPOS>ATOM
      1 C1          32.1130    73.5970    15.2080 c3         1 V0J      -0.031400
      2 C2          32.4730    72.9930    13.8190 ca         1 V0J      -0.059800
      3 C3          32.9080    72.9960    16.4060 ca         1 V0J      -0.059800
      4 C41         35.0530    77.0150    23.3190 ca         1 V0J      -0.146500
      5 C42         33.3090    76.2350    21.7820 ca         1 V0J      -0.103000
      6 C43         36.4510    77.2280    23.7330 cc         1 V0J       0.458000
      7 C44         34.0380    77.2510    24.2800 ca         1 V0J      -0.098000
      8 C45         32.3210    76.4840    22.7440 ca         1 V0J      -0.091000
      9 C48         32.6890    76.9950    23.9940 ca         1 V0J      -0.124000
     10 C12         33.0760    73.2290    11.4500 ca         1 V0J      -0.116500
     11 C13         32.6750    71.0210    12.3660 ca         1 V0J      -0.116500
     12 C14         33.2410    72.8660    18.8370 ca         1 V0J      -0.116500
     13 C15         34.6760    71.5830    17.3660 ca         1 V0J      -0.116500
     14 C16         33.7820    77.2030    15.6450 c6         1 V0J      -0.059300
     15 C17         34.8380    75.0720    14.8370 c6         1 V0J       0.094000
     16 C18         33.0250    71.8380    11.2820 ca         1 V0J      -0.119000
     17 C19         34.2980    71.9630    18.6610 ca         1 V0J      -0.119000
     18 C20         35.2210    77.7430    15.4010 c6         1 V0J       0.106000
     19 C21         33.3200    77.6240    17.0750 c          1 V0J       0.728000
     20 C22         36.0570    75.4020    15.7300 c6         1 V0J       0.094000
     21 C26         37.6150    77.4010    16.1040 c          1 V0J       0.635100
     22 C29         38.4220    75.5040    17.6400 c3         1 V0J       0.136300
     23 C30         40.0570    77.1520    16.6830 c3         1 V0J       0.096000
     24 C4          32.3010    75.1640    15.2390 c          1 V0J       0.613100
     25 C5          30.6000    73.2560    15.4180 c3         1 V0J      -0.065100
     26 C6          32.7920    73.8040    12.7010 ca         1 V0J      -0.099500
     27 C7          32.3910    71.5930    13.6170 ca         1 V0J      -0.099500
     28 C8          32.5600    73.3820    17.7230 ca         1 V0J      -0.099500
     29 C9          33.9900    72.0920    16.2490 ca         1 V0J      -0.099500
     30 N10         33.6020    75.7400    15.3130 n          1 V0J      -0.366800
     31 O11         31.3240    75.9100    15.2450 o          1 V0J      -0.609100
     32 N23         36.3210    76.8600    15.8870 n          1 V0J      -0.392800
     33 O24         32.6520    78.6480    17.1430 o          1 V0J      -0.718500
     34 O25         33.2360    76.7550    17.9320 o          1 V0J      -0.718500
     35 N27         38.6590    76.6490    16.7190 n          1 V0J      -0.404800
     36 O28         37.8370    78.5480    15.7360 o          1 V0J      -0.647100
     37 C31         37.4540    75.7780    18.7890 ca         1 V0J      -0.110300
     38 C32         40.9090    76.4330    15.6180 c3         1 V0J      -0.085400
     39 C33         36.6490    74.7350    19.2850 ca         1 V0J      -0.086000
     40 C34         37.3670    77.0540    19.3820 ca         1 V0J      -0.086000
     41 C35         42.3700    76.9320    15.5800 c3         1 V0J      -0.074400
     42 C36         35.7580    74.9680    20.3450 ca         1 V0J      -0.092000
     43 C37         36.4710    77.2860    20.4400 ca         1 V0J      -0.092000
     44 C38         43.2240    76.2150    14.5170 c3         1 V0J      -0.086100
     45 C39         35.6550    76.2450    20.9430 cp         1 V0J      -0.064000
     46 C40         34.6760    76.4920    22.0430 cp         1 V0J       0.041000
     47 N46         36.8680    78.0900    24.7080 na         1 V0J      -0.220700
     48 N47         37.5280    76.5990    23.3070 nd         1 V0J      -0.347000
     49 N49         38.2120    78.0140    24.8730 nc         1 V0J      -0.223800
     50 N50         38.5920    77.1080    24.0140 nd         1 V0J      -0.043000
     51 H1          33.0150    75.8520    20.8070 ha         1 V0J       0.133000
     52 H2          34.2910    77.6200    25.2720 ha         1 V0J       0.107000
     53 H3          31.2760    76.2830    22.5190 ha         1 V0J       0.114000
     54 H4          31.9270    77.1840    24.7480 ha         1 V0J       0.111000
     55 H5          33.3280    73.8670    10.6060 ha         1 V0J       0.105250
     56 H6          32.6200    69.9420    12.2370 ha         1 V0J       0.105250
     57 H7          32.9510    73.1740    19.8390 ha         1 V0J       0.105250
     58 H8          35.5030    70.8920    17.2240 ha         1 V0J       0.105250
     59 H9          33.1290    77.7690    14.9670 h1         1 V0J       0.070700
     60 H10         34.7210    73.9880    14.7800 h1         1 V0J       0.038700
     61 H11         35.0460    75.4150    13.8140 h1         1 V0J       0.038700
     62 H12         33.2430    71.3960    10.3120 ha         1 V0J       0.101500
     63 H13         34.8280    71.5660    19.5240 ha         1 V0J       0.101500
     64 H14         35.3600    77.8870    14.3200 h1         1 V0J       0.047200
     65 H15         35.3080    78.7350    15.8650 h1         1 V0J       0.047200
     66 H16         35.8720    74.9610    16.7180 h1         1 V0J       0.062200
     67 H17         36.9390    74.9160    15.2920 h1         1 V0J       0.062200
     68 H18         38.1020    74.6270    17.0680 h1         1 V0J       0.068700
     69 H19         39.3790    75.2100    18.0920 h1         1 V0J       0.068700
     70 H20         40.5170    77.0050    17.6680 h1         1 V0J       0.037700
     71 H21         40.0790    78.2310    16.4900 h1         1 V0J       0.037700
     72 H22         30.1850    73.7490    16.3040 hc         1 V0J       0.039700
     73 H23         30.0070    73.5790    14.5530 hc         1 V0J       0.039700
     74 H24         30.4490    72.1780    15.5440 hc         1 V0J       0.039700
     75 H25         32.8160    74.8870    12.7740 ha         1 V0J       0.123500
     76 H26         32.1150    70.9380    14.4400 ha         1 V0J       0.123500
     77 H27         31.7600    74.0980    17.8930 ha         1 V0J       0.123500
     78 H28         34.3290    71.7840    15.2660 ha         1 V0J       0.123500
     79 H30         40.4490    76.5820    14.6340 hc         1 V0J       0.049200
     80 H31         40.9000    75.3550    15.8180 hc         1 V0J       0.049200
     81 H32         36.7080    73.7410    18.8470 ha         1 V0J       0.138000
     82 H33         37.9880    77.8720    19.0240 ha         1 V0J       0.138000
     83 H34         42.8300    76.7850    16.5650 hc         1 V0J       0.033700
     84 H35         42.3810    78.0100    15.3780 hc         1 V0J       0.033700
     85 H36         35.1420    74.1530    20.7140 ha         1 V0J       0.111000
     86 H37         36.4040    78.2800    20.8730 ha         1 V0J       0.111000
     87 H38         44.2500    76.6020    14.5270 hc         1 V0J       0.027033
     88 H39         43.2620    75.1370    14.7120 hc         1 V0J       0.027033
     89 H40         42.8080    76.3720    13.5140 hc         1 V0J       0.027033
     90 H41         36.2880    78.7220    25.2450 hn         1 V0J       0.379000
@<TRIPOS>BOND
     1     1     2 1   
     2     1     3 1   
     3     1    24 1   
     4     1    25 1   
     5     2    26 ar  
     6     2    27 ar  
     7     3    28 ar  
     8     3    29 ar  
     9     4     6 1   
    10     4     7 ar  
    11     4    46 ar  
    12     5     8 ar  
    13     5    46 ar  
    14     5    51 1   
    15     6    47 1   
    16     6    48 2   
    17     7     9 ar  
    18     7    52 1   
    19     8     9 ar  
    20     8    53 1   
    21     9    54 1   
    22    10    16 ar  
    23    10    26 ar  
    24    10    55 1   
    25    11    16 ar  
    26    11    27 ar  
    27    11    56 1   
    28    12    17 ar  
    29    12    28 ar  
    30    12    57 1   
    31    13    17 ar  
    32    13    29 ar  
    33    13    58 1   
    34    14    18 1   
    35    14    19 1   
    36    14    30 1   
    37    14    59 1   
    38    15    20 1   
    39    15    30 1   
    40    15    60 1   
    41    15    61 1   
    42    16    62 1   
    43    17    63 1   
    44    18    32 1   
    45    18    64 1   
    46    18    65 1   
    47    19    33 1   
    48    19    34 1   
    49    20    32 1   
    50    20    66 1   
    51    20    67 1   
    52    21    32 1   
    53    21    35 1   
    54    21    36 2   
    55    22    35 1   
    56    22    37 1   
    57    22    68 1   
    58    22    69 1   
    59    23    35 1   
    60    23    38 1   
    61    23    70 1   
    62    23    71 1   
    63    24    30 1   
    64    24    31 2   
    65    25    72 1   
    66    25    73 1   
    67    25    74 1   
    68    26    75 1   
    69    27    76 1   
    70    28    77 1   
    71    29    78 1   
    72    37    39 ar  
    73    37    40 ar  
    74    38    41 1   
    75    38    79 1   
    76    38    80 1   
    77    39    42 ar  
    78    39    81 1   
    79    40    43 ar  
    80    40    82 1   
    81    41    44 1   
    82    41    83 1   
    83    41    84 1   
    84    42    45 ar  
    85    42    85 1   
    86    43    45 ar  
    87    43    86 1   
    88    44    87 1   
    89    44    88 1   
    90    44    89 1   
    91    45    46 1   
    92    47    49 1   
    93    47    90 1   
    94    48    50 1   
    95    49    50 2   
@<TRIPOS>SUBSTRUCTURE
     1 V0J         1 TEMP              0 ****  ****    0 ROOT
