@<TRIPOS>MOLECULE
V0J
   90    95     1     0     0
SMALL
abcg2


@<TRIPOS>ATOM
      1 C1          32.3580    72.4020    13.9860 c3         1 V0J      -0.031400
      2 C2          33.1340    72.5920    12.6830 ca         1 V0J      -0.059800
      3 C3          32.9410    71.3730    14.9670 ca         1 V0J      -0.059800
      4 C41         36.3570    78.9510    24.2380 ca         1 V0J      -0.146500
      5 C42         35.7720    80.5190    22.5190 ca         1 V0J      -0.103000
      6 C43         36.6710    77.5960    24.6940 cc         1 V0J       0.458000
      7 C44         36.1900    79.9520    25.1930 ca         1 V0J      -0.098000
      8 C45         35.5950    81.5100    23.4730 ca         1 V0J      -0.091000
      9 C48         35.8140    81.2300    24.8140 ca         1 V0J      -0.124000
     10 C12         34.0020    74.0000    10.9080 ca         1 V0J      -0.116500
     11 C13         34.0780    71.6230    10.6660 ca         1 V0J      -0.116500
     12 C14         32.6660    70.1700    17.0580 ca         1 V0J      -0.116500
     13 C15         34.5990    69.7670    15.7110 ca         1 V0J      -0.116500
     14 C16         33.0090    75.6520    15.9470 c6         1 V0J      -0.059300
     15 C17         34.6420    74.0630    15.0250 c6         1 V0J       0.094000
     16 C18         34.3580    72.8870    10.1640 ca         1 V0J      -0.119000
     17 C19         33.8600    69.4930    16.8510 ca         1 V0J      -0.119000
     18 C20         34.2230    76.5580    15.8170 c6         1 V0J       0.106000
     19 C21         32.6420    75.4360    17.4460 c          1 V0J       0.728000
     20 C22         35.4610    74.4770    16.2350 c6         1 V0J       0.094000
     21 C26         36.4770    76.7010    16.6590 c          1 V0J       0.635100
     22 C29         37.1700    75.4200    18.6290 c3         1 V0J       0.136300
     23 C30         38.7720    76.8180    17.3920 c3         1 V0J       0.096000
     24 C4          32.1710    73.7350    14.7620 c          1 V0J       0.613100
     25 C5          30.9640    71.9000    13.5530 c3         1 V0J      -0.065100
     26 C6          33.3920    73.8530    12.1480 ca         1 V0J      -0.099500
     27 C7          33.4650    71.4820    11.9020 ca         1 V0J      -0.099500
     28 C8          32.2170    71.0960    16.1290 ca         1 V0J      -0.099500
     29 C9          34.1460    70.6970    14.7830 ca         1 V0J      -0.099500
     30 N10         33.2450    74.4150    15.2120 n          1 V0J      -0.366800
     31 O11         31.0390    74.1540    14.9660 o          1 V0J      -0.609100
     32 N23         35.3840    75.9210    16.4160 n          1 V0J      -0.392800
     33 O24         32.3890    76.4900    18.0640 o          1 V0J      -0.718500
     34 O25         32.6330    74.2780    17.8910 o          1 V0J      -0.718500
     35 N27         37.4970    76.1090    17.3820 n          1 V0J      -0.404800
     36 O28         36.5450    77.8520    16.2480 o          1 V0J      -0.647100
     37 C31         36.8960    76.3770    19.7640 ca         1 V0J      -0.110300
     38 C32         39.5330    76.6800    16.0810 c3         1 V0J      -0.085400
     39 C33         35.6670    77.0260    19.8620 ca         1 V0J      -0.086000
     40 C34         37.8750    76.6660    20.7090 ca         1 V0J      -0.086000
     41 C35         40.8840    77.3830    16.1310 c3         1 V0J      -0.074400
     42 C36         35.4290    77.9430    20.8730 ca         1 V0J      -0.092000
     43 C37         37.6390    77.5800    21.7240 ca         1 V0J      -0.092000
     44 C38         41.6830    77.2040    14.8480 c3         1 V0J      -0.086100
     45 C39         36.4110    78.2290    21.8200 cp         1 V0J      -0.064000
     46 C40         36.1660    79.2320    22.8790 cp         1 V0J       0.041000
     47 N46         37.6450    77.2740    25.5500 na         1 V0J      -0.220700
     48 N47         36.0440    76.4810    24.3920 nd         1 V0J      -0.347000
     49 N49         37.6190    75.9720    25.7680 nc         1 V0J      -0.223800
     50 N50         36.6570    75.5120    25.0690 nd         1 V0J      -0.043000
     51 H1          35.6280    80.7510    21.4720 ha         1 V0J       0.133000
     52 H2          36.3280    79.7240    26.2430 ha         1 V0J       0.107000
     53 H3          35.2960    82.5030    23.1650 ha         1 V0J       0.114000
     54 H4          35.6840    81.9990    25.5640 ha         1 V0J       0.111000
     55 H5          34.1930    74.9950    10.5270 ha         1 V0J       0.105250
     56 H6          34.3290    70.7400    10.0920 ha         1 V0J       0.105250
     57 H7          32.0800    69.9810    17.9480 ha         1 V0J       0.105250
     58 H8          35.5390    69.2600    15.5360 ha         1 V0J       0.105250
     59 H9          32.1770    76.1810    15.4780 h1         1 V0J       0.070700
     60 H10         34.7610    72.9930    14.8970 h1         1 V0J       0.038700
     61 H11         35.0490    74.5410    14.1290 h1         1 V0J       0.038700
     62 H12         34.8380    73.0000     9.2010 ha         1 V0J       0.101500
     63 H13         34.2120    68.7680    17.5730 ha         1 V0J       0.101500
     64 H14         34.3970    76.8020    14.7630 h1         1 V0J       0.047200
     65 H15         34.0050    77.4900    16.3310 h1         1 V0J       0.047200
     66 H16         35.0960    73.9350    17.1100 h1         1 V0J       0.062200
     67 H17         36.4960    74.1820    16.0690 h1         1 V0J       0.062200
     68 H18         36.3100    74.7680    18.4880 h1         1 V0J       0.068700
     69 H19         38.0070    74.7670    18.8810 h1         1 V0J       0.068700
     70 H20         39.3750    76.3760    18.1870 h1         1 V0J       0.037700
     71 H21         38.6480    77.8730    17.6520 h1         1 V0J       0.037700
     72 H22         30.2840    71.7730    14.3920 hc         1 V0J       0.039700
     73 H23         30.5050    72.5910    12.8470 hc         1 V0J       0.039700
     74 H24         31.0660    70.9340    13.0590 hc         1 V0J       0.039700
     75 H25         33.1150    74.7510    12.6850 ha         1 V0J       0.123500
     76 H26         33.2330    70.4840    12.2520 ha         1 V0J       0.123500
     77 H27         31.2860    71.6120    16.3280 ha         1 V0J       0.123500
     78 H28         34.7630    70.8930    13.9170 ha         1 V0J       0.123500
     79 H30         38.9440    77.0880    15.2550 hc         1 V0J       0.049200
     80 H31         39.6790    75.6170    15.8670 hc         1 V0J       0.049200
     81 H32         34.8770    76.8100    19.1500 ha         1 V0J       0.138000
     82 H33         38.8390    76.1720    20.6510 ha         1 V0J       0.138000
     83 H34         41.4620    77.0000    16.9780 hc         1 V0J       0.033700
     84 H35         40.7330    78.4490    16.3240 hc         1 V0J       0.033700
     85 H36         34.4630    78.4290    20.9380 ha         1 V0J       0.111000
     86 H37         38.4250    77.7990    22.4370 ha         1 V0J       0.111000
     87 H38         42.6440    77.7160    14.9010 hc         1 V0J       0.027033
     88 H39         41.8820    76.1480    14.6530 hc         1 V0J       0.027033
     89 H40         41.1430    77.6010    13.9880 hc         1 V0J       0.027033
     90 H41         38.3440    77.8620    25.9840 hn         1 V0J       0.379000
@<TRIPOS>BOND
     1     1     2 1   
     2     1     3 1   
     3     1    24 1   
     4     1    25 1   
     5     2    26 ar  
     6     2    27 ar  
     7     3    28 ar  
     8     3    29 ar  
     9     4     6 1   
    10     4     7 ar  
    11     4    46 ar  
    12     5     8 ar  
    13     5    46 ar  
    14     5    51 1   
    15     6    47 1   
    16     6    48 2   
    17     7     9 ar  
    18     7    52 1   
    19     8     9 ar  
    20     8    53 1   
    21     9    54 1   
    22    10    16 ar  
    23    10    26 ar  
    24    10    55 1   
    25    11    16 ar  
    26    11    27 ar  
    27    11    56 1   
    28    12    17 ar  
    29    12    28 ar  
    30    12    57 1   
    31    13    17 ar  
    32    13    29 ar  
    33    13    58 1   
    34    14    18 1   
    35    14    19 1   
    36    14    30 1   
    37    14    59 1   
    38    15    20 1   
    39    15    30 1   
    40    15    60 1   
    41    15    61 1   
    42    16    62 1   
    43    17    63 1   
    44    18    32 1   
    45    18    64 1   
    46    18    65 1   
    47    19    33 1   
    48    19    34 1   
    49    20    32 1   
    50    20    66 1   
    51    20    67 1   
    52    21    32 1   
    53    21    35 1   
    54    21    36 2   
    55    22    35 1   
    56    22    37 1   
    57    22    68 1   
    58    22    69 1   
    59    23    35 1   
    60    23    38 1   
    61    23    70 1   
    62    23    71 1   
    63    24    30 1   
    64    24    31 2   
    65    25    72 1   
    66    25    73 1   
    67    25    74 1   
    68    26    75 1   
    69    27    76 1   
    70    28    77 1   
    71    29    78 1   
    72    37    39 ar  
    73    37    40 ar  
    74    38    41 1   
    75    38    79 1   
    76    38    80 1   
    77    39    42 ar  
    78    39    81 1   
    79    40    43 ar  
    80    40    82 1   
    81    41    44 1   
    82    41    83 1   
    83    41    84 1   
    84    42    45 ar  
    85    42    85 1   
    86    43    45 ar  
    87    43    86 1   
    88    44    87 1   
    89    44    88 1   
    90    44    89 1   
    91    45    46 1   
    92    47    49 1   
    93    47    90 1   
    94    48    50 1   
    95    49    50 2   
@<TRIPOS>SUBSTRUCTURE
     1 V0J         1 TEMP              0 ****  ****    0 ROOT
