@<TRIPOS>MOLECULE
V0L
   41    45     1     0     0
SMALL
bcc


@<TRIPOS>ATOM
      1 C1          -1.5360    -1.3650    -1.9210 c3         1 V0L       0.143300
      2 C8          -2.2280    -0.4430    -0.9490 cc         1 V0L      -0.155300
      3 C9          -3.0990    -0.9570     0.0540 cc         1 V0L      -0.111000
      4 C10         -3.7020    -0.1240     0.9440 cd         1 V0L      -0.090000
      5 C11         -3.4590     1.2640     0.8670 cd         1 V0L      -0.027300
      6 N1          -2.6040     1.7250    -0.1200 na         1 V0L       0.026700
      7 C13         -1.9930     0.8920    -1.0090 cd         1 V0L      -0.038300
      8 C14         -2.5290     3.0850     0.0190 cd         1 V0L      -0.234100
      9 C15         -3.3410     3.3770     1.0820 cc         1 V0L       0.021600
     10 N2          -3.9120     2.2620     1.6010 nc         1 V0L      -0.286600
     11 C17         -2.4980    -2.2050    -2.7430 c3         1 V0L      -0.093100
     12 N3          -0.5890    -2.1990    -1.1840 na         1 V0L      -0.003800
     13 C19          0.5640    -1.8060    -0.6060 ca         1 V0L       0.300500
     14 C20          1.0230    -2.9470     0.0390 ca         1 V0L       0.353000
     15 N5           0.1350    -3.9510    -0.1740 nc         1 V0L      -0.266000
     16 N4          -0.8140    -3.4800    -0.8950 nd         1 V0L      -0.147400
     17 N23          2.1610    -2.9550     0.7330 nb         1 V0L      -0.542000
     18 N24          1.1720    -0.6320    -0.6110 nb         1 V0L      -0.643000
     19 C25          2.3000    -0.6270     0.0830 ca         1 V0L       0.451500
     20 C26          2.7800    -1.8010     0.7480 ca         1 V0L       0.274900
     21 C27          3.0360     0.6170     0.1560 cc         1 V0L      -0.359800
     22 C28          2.6780     1.8520    -0.4240 cc         1 V0L       0.357200
     23 N8           3.5670     2.7820    -0.1550 nd         1 V0L      -0.526800
     24 N9           4.4980     2.1820     0.5890 na         1 V0L       0.120400
     25 C31          4.2300     0.8910     0.8040 cd         1 V0L      -0.097300
     26 C32          5.6360     2.9330     1.0630 c3         1 V0L       0.040600
     27 H1          -0.9320    -0.7640    -2.6050 h1         1 V0L       0.074700
     28 H2          -3.2800    -2.0220     0.1130 ha         1 V0L       0.152000
     29 H3          -4.3640    -0.4960     1.7140 ha         1 V0L       0.165000
     30 H4          -1.3370     1.3520    -1.7340 h4         1 V0L       0.165000
     31 H5          -1.9250     3.6990    -0.6270 h4         1 V0L       0.182000
     32 H6          -3.5350     4.3560     1.4940 h4         1 V0L       0.178000
     33 H7          -3.1480    -2.8210    -2.1250 hc         1 V0L       0.058033
     34 H8          -3.1220    -1.5320    -3.3270 hc         1 V0L       0.058033
     35 H9          -1.9600    -2.8540    -3.4330 hc         1 V0L       0.058033
     36 H10          3.7090    -1.7530     1.3030 h4         1 V0L       0.031100
     37 H11          1.8070     2.0770    -1.0200 h4         1 V0L       0.049100
     38 H12          4.8880     0.2710     1.3910 h4         1 V0L       0.176000
     39 H13          5.3060     3.7580     1.6910 h1         1 V0L       0.061367
     40 H14          6.2740     2.2760     1.6470 h1         1 V0L       0.061367
     41 H15          6.2040     3.3250     0.2230 h1         1 V0L       0.061367
@<TRIPOS>BOND
     1     1     2 1   
     2     1    11 1   
     3     1    12 1   
     4     1    27 1   
     5     2     3 1   
     6     2     7 2   
     7     3     4 2   
     8     3    28 1   
     9     4     5 1   
    10     4    29 1   
    11     5     6 1   
    12     5    10 2   
    13     6     7 1   
    14     6     8 1   
    15     7    30 1   
    16     8     9 2   
    17     8    31 1   
    18     9    10 1   
    19     9    32 1   
    20    11    33 1   
    21    11    34 1   
    22    11    35 1   
    23    12    13 1   
    24    12    16 1   
    25    13    14 ar  
    26    13    18 ar  
    27    14    15 1   
    28    14    17 ar  
    29    15    16 2   
    30    17    20 ar  
    31    18    19 ar  
    32    19    20 ar  
    33    19    21 1   
    34    20    36 1   
    35    21    22 1   
    36    21    25 2   
    37    22    23 2   
    38    22    37 1   
    39    23    24 1   
    40    24    25 1   
    41    24    26 1   
    42    25    38 1   
    43    26    39 1   
    44    26    40 1   
    45    26    41 1   
@<TRIPOS>SUBSTRUCTURE
     1 V0L         1 TEMP              0 ****  ****    0 ROOT
