@<TRIPOS>MOLECULE
V0L
   41    45     1     0     0
SMALL
No Charge or Current Charge


@<TRIPOS>ATOM
      1 C1          -1.4820    -1.3020    -1.8050 c3         1 V0L       0.172600
      2 C8          -2.2820    -0.3850    -0.9020 cc         1 V0L      -0.155300
      3 C9          -3.2460    -0.9890     0.0050 cc         1 V0L      -0.093000
      4 C10         -4.0070    -0.2280     0.8680 cd         1 V0L      -0.072000
      5 C11         -3.7830     1.1750     0.8080 cd         1 V0L      -0.078000
      6 N1          -2.8760     1.7280    -0.0450 na         1 V0L       0.128100
      7 C13         -2.0860     0.9980    -0.9320 cd         1 V0L      -0.071000
      8 C14         -2.8410     3.0900     0.0890 cd         1 V0L      -0.284100
      9 C15         -3.7860     3.3070     1.0740 cc         1 V0L      -0.028400
     10 N2          -4.3620     2.1300     1.5130 nc         1 V0L      -0.286600
     11 C17         -2.3710    -2.0420    -2.8310 c3         1 V0L      -0.093100
     12 N3          -0.5970    -2.1970    -1.0290 na         1 V0L      -0.033100
     13 C19          0.5880    -1.7980    -0.4840 ca         1 V0L       0.300500
     14 C20          1.0260    -2.9320     0.1940 ca         1 V0L       0.353000
     15 N5           0.0980    -3.9640     0.0370 nc         1 V0L      -0.266000
     16 N4          -0.9030    -3.5040    -0.7100 nd         1 V0L      -0.147400
     17 N23          2.1930    -2.9480     0.8820 nb         1 V0L      -0.542000
     18 N24          1.2640    -0.6190    -0.5300 nb         1 V0L      -0.643000
     19 C25          2.4390    -0.6120     0.1580 ca         1 V0L       0.451500
     20 C26          2.8940    -1.7770     0.8570 ca         1 V0L       0.274900
     21 C27          3.1920     0.6420     0.1340 cc         1 V0L      -0.294500
     22 C28          2.8700     1.8560    -0.4850 cc         1 V0L       0.291900
     23 N8           3.7800     2.7930    -0.3100 nd         1 V0L      -0.526800
     24 N9           4.7370     2.1450     0.4630 na         1 V0L       0.141800
     25 C31          4.3990     0.8170     0.7500 cd         1 V0L      -0.130000
     26 C32          5.9540     2.8470     0.8950 c3         1 V0L       0.069900
     27 H1          -0.8140    -0.6630    -2.4000 h1         1 V0L       0.074700
     28 H2          -3.3650    -2.0680     0.0050 ha         1 V0L       0.134000
     29 H3          -4.7270    -0.6730     1.5480 ha         1 V0L       0.147000
     30 H4          -1.3890     1.5340    -1.5640 h4         1 V0L       0.147000
     31 H5          -2.1990     3.7550    -0.4790 h4         1 V0L       0.232000
     32 H6          -4.0960     4.2560     1.5070 h4         1 V0L       0.228000
     33 H7          -3.0800    -2.7150    -2.3350 hc         1 V0L       0.058033
     34 H8          -2.9450    -1.3220    -3.4260 hc         1 V0L       0.058033
     35 H9          -1.7550    -2.6350    -3.5170 hc         1 V0L       0.058033
     36 H10          3.8330    -1.7740     1.4070 h4         1 V0L       0.031100
     37 H11          1.9860     2.0870    -1.0670 h4         1 V0L       0.049100
     38 H12          5.0280     0.1590     1.3400 h4         1 V0L       0.158000
     39 H13          5.6780     3.7190     1.4990 h1         1 V0L       0.061367
     40 H14          6.5770     2.1740     1.4950 h1         1 V0L       0.061367
     41 H15          6.5190     3.1760     0.0150 h1         1 V0L       0.061367
@<TRIPOS>BOND
     1     1     2 1   
     2     1    11 1   
     3     1    12 1   
     4     1    27 1   
     5     2     3 1   
     6     2     7 2   
     7     3     4 2   
     8     3    28 1   
     9     4     5 1   
    10     4    29 1   
    11     5     6 1   
    12     5    10 2   
    13     6     7 1   
    14     6     8 1   
    15     7    30 1   
    16     8     9 2   
    17     8    31 1   
    18     9    10 1   
    19     9    32 1   
    20    11    33 1   
    21    11    34 1   
    22    11    35 1   
    23    12    13 1   
    24    12    16 1   
    25    13    14 ar  
    26    13    18 ar  
    27    14    15 1   
    28    14    17 ar  
    29    15    16 2   
    30    17    20 ar  
    31    18    19 ar  
    32    19    20 ar  
    33    19    21 1   
    34    20    36 1   
    35    21    22 1   
    36    21    25 2   
    37    22    23 2   
    38    22    37 1   
    39    23    24 1   
    40    24    25 1   
    41    24    26 1   
    42    25    38 1   
    43    26    39 1   
    44    26    40 1   
    45    26    41 1   
@<TRIPOS>SUBSTRUCTURE
     1 V0L         1 TEMP              0 ****  ****    0 ROOT
