@<TRIPOS>MOLECULE
V0M
   50    53     1     0     0
SMALL
bcc


@<TRIPOS>ATOM
      1 C1          30.9820    59.2440    10.6420 c5         1 V0M      -0.006600
      2 C2          30.4490    58.2500    11.6910 c5         1 V0M      -0.040600
      3 C3          29.1730    58.8880    12.1580 ca         1 V0M      -0.078300
      4 O1          33.4650    59.1320    11.9730 o          1 V0M      -0.632100
      5 C11         33.4420    61.4650    12.5200 c3         1 V0M      -0.117100
      6 C12         34.8560    61.7330    12.0770 ca         1 V0M      -0.082300
      7 C13         35.9400    61.0380    12.6350 ca         1 V0M       0.183600
      8 C14         36.6500    59.5180    14.4170 ca         1 V0M       0.187600
      9 C15         36.9730    58.1550    14.4180 ca         1 V0M      -0.015600
     10 C16         37.9100    57.6150    15.2820 ca         1 V0M      -0.107500
     11 C17         38.5810    58.4450    16.1650 ca         1 V0M      -0.154000
     12 C18         38.2910    59.8000    16.1990 ca         1 V0M      -0.107500
     13 C19         37.3280    60.3150    15.3490 ca         1 V0M      -0.015600
     14 C20         37.2370    61.3550    12.2340 ca         1 V0M      -0.177000
     15 C21         37.4640    62.3450    11.2910 ca         1 V0M      -0.108000
     16 C22         36.3970    63.0240    10.7200 ca         1 V0M      -0.160000
     17 C23         35.1060    62.7070    11.1170 ca         1 V0M      -0.090000
     18 C24         31.8460    58.6350     9.4970 c          1 V0M       0.947600
     19 C9          29.6860    59.8490    10.0540 c5         1 V0M      -0.040600
     20 C8          28.7290    59.8110    11.2130 ca         1 V0M      -0.078300
     21 C7          27.5560    60.5190    11.4130 ca         1 V0M      -0.130000
     22 C6          26.8260    60.2990    12.5790 ca         1 V0M      -0.149000
     23 C5          27.2680    59.3800    13.5230 ca         1 V0M      -0.149000
     24 C4          28.4470    58.6670    13.3160 ca         1 V0M      -0.130000
     25 N1          31.6760    60.3350    11.3130 ns         1 V0M      -0.518900
     26 C10         32.8650    60.2040    11.8990 c          1 V0M       0.672100
     27 N2          35.6790    60.0420    13.5820 nu         1 V0M      -0.647000
     28 CL1         36.9190    61.9890    15.4790 cl         1 V0M      -0.084400
     29 CL2         36.1700    57.1060    13.2980 cl         1 V0M      -0.084400
     30 H1          30.2370    57.2930    11.2090 hc         1 V0M       0.070200
     31 H2          31.1610    58.0530    12.4920 hc         1 V0M       0.070200
     32 H4          32.8200    62.3310    12.2940 hc         1 V0M       0.054700
     33 H5          33.4130    61.3310    13.6060 hc         1 V0M       0.054700
     34 H6          38.1250    56.5560    15.2510 ha         1 V0M       0.140000
     35 H7          39.3250    58.0340    16.8340 ha         1 V0M       0.129000
     36 H8          38.7960    60.4530    16.8980 ha         1 V0M       0.140000
     37 H9          38.0790    60.8180    12.6520 ha         1 V0M       0.128000
     38 H10         38.4800    62.5740    10.9960 ha         1 V0M       0.117000
     39 H11         36.5660    63.7950     9.9800 ha         1 V0M       0.122000
     40 H12         34.2670    63.2420    10.6880 ha         1 V0M       0.128000
     41 H13         29.8380    60.8440     9.6300 hc         1 V0M       0.070200
     42 H14         29.3170    59.2140     9.2420 hc         1 V0M       0.070200
     43 H15         27.2100    61.2390    10.6810 ha         1 V0M       0.121000
     44 H16         25.9120    60.8530    12.7540 ha         1 V0M       0.110500
     45 H17         26.6960    59.2220    14.4280 ha         1 V0M       0.110500
     46 H18         28.7890    57.9550    14.0570 ha         1 V0M       0.121000
     47 H19         31.2910    61.2630    11.2380 hn         1 V0M       0.294500
     48 H20         34.9490    59.4020    13.2830 hn         1 V0M       0.485800
     49 O2          32.5470    59.4410     8.8620 o          1 V0M      -0.813800
     50 O3          31.6990    57.4190     9.2790 o          1 V0M      -0.813800
@<TRIPOS>BOND
     1     1     2 1   
     2     1    18 1   
     3     1    19 1   
     4     1    25 1   
     5     2     3 1   
     6     2    30 1   
     7     2    31 1   
     8     3    20 ar  
     9     3    24 ar  
    10     4    26 2   
    11     5     6 1   
    12     5    26 1   
    13     5    32 1   
    14     5    33 1   
    15     6     7 ar  
    16     6    17 ar  
    17     7    14 ar  
    18     7    27 1   
    19     8     9 ar  
    20     8    13 ar  
    21     8    27 1   
    22     9    10 ar  
    23     9    29 1   
    24    10    11 ar  
    25    10    34 1   
    26    11    12 ar  
    27    11    35 1   
    28    12    13 ar  
    29    12    36 1   
    30    13    28 1   
    31    14    15 ar  
    32    14    37 1   
    33    15    16 ar  
    34    15    38 1   
    35    16    17 ar  
    36    16    39 1   
    37    17    40 1   
    38    18    49 1   
    39    18    50 1   
    40    19    20 1   
    41    19    41 1   
    42    19    42 1   
    43    20    21 ar  
    44    21    22 ar  
    45    21    43 1   
    46    22    23 ar  
    47    22    44 1   
    48    23    24 ar  
    49    23    45 1   
    50    24    46 1   
    51    25    26 1   
    52    25    47 1   
    53    27    48 1   
@<TRIPOS>SUBSTRUCTURE
     1 V0M         1 TEMP              0 ****  ****    0 ROOT
