@<TRIPOS>MOLECULE
V0M
   50    53     1     0     0
SMALL
No Charge or Current Charge


@<TRIPOS>ATOM
      1 C1          31.1540    58.9730    11.0580 c5         1 V0M      -0.006600
      2 C2          30.2910    58.2420    12.1760 c5         1 V0M      -0.040600
      3 C3          29.0160    59.0450    12.0980 ca         1 V0M      -0.078300
      4 O1          33.2700    59.0210    12.9580 o          1 V0M      -0.632100
      5 C11         33.2750    61.4190    13.1650 c3         1 V0M      -0.117100
      6 C12         34.5750    61.8590    12.4770 ca         1 V0M      -0.082300
      7 C13         35.8040    61.1880    12.7020 ca         1 V0M       0.322000
      8 C14         36.9160    59.4250    14.2150 ca         1 V0M       0.326000
      9 C15         37.0610    58.0150    14.1460 ca         1 V0M       0.076000
     10 C16         38.1030    57.3650    14.8310 ca         1 V0M      -0.089500
     11 C17         39.0100    58.1060    15.6030 ca         1 V0M      -0.136000
     12 C18         38.8710    59.4990    15.6990 ca         1 V0M      -0.089500
     13 C19         37.8330    60.1610    15.0180 ca         1 V0M       0.076000
     14 C20         36.9730    61.6430    12.0630 ca         1 V0M      -0.159000
     15 C21         36.9360    62.7600    11.2140 ca         1 V0M      -0.090000
     16 C22         35.7230    63.4270    10.9940 ca         1 V0M      -0.142000
     17 C23         34.5490    62.9790    11.6200 ca         1 V0M      -0.072000
     18 C24         32.2580    58.0940    10.3410 c          1 V0M       0.737000
     19 C9          30.1090    59.5500    10.0180 c5         1 V0M      -0.040600
     20 C8          28.9150    59.7590    10.9170 ca         1 V0M      -0.078300
     21 C7          27.7950    60.5620    10.6520 ca         1 V0M      -0.112000
     22 C6          26.7670    60.6340    11.6130 ca         1 V0M      -0.131000
     23 C5          26.8690    59.9060    12.8160 ca         1 V0M      -0.131000
     24 C4          27.9990    59.1030    13.0640 ca         1 V0M      -0.112000
     25 N1          31.7460    60.1940    11.6850 ns         1 V0M      -0.451900
     26 C10         32.7740    60.0840    12.6070 c          1 V0M       0.605100
     27 N2          35.8610    60.0530    13.5150 nu         1 V0M      -0.979000
     28 Cl1         37.6900    61.9090    15.2570 cl         1 V0M      -0.176000
     29 Cl2         35.9570    57.0280    13.1800 cl         1 V0M      -0.176000
     30 H1          30.0960    57.1940    11.9220 hc         1 V0M       0.070200
     31 H2          30.7490    58.2530    13.1710 hc         1 V0M       0.070200
     32 H4          32.5070    62.1870    13.0130 hc         1 V0M       0.054700
     33 H5          33.4570    61.3080    14.2400 hc         1 V0M       0.054700
     34 H6          38.2060    56.2850    14.7600 ha         1 V0M       0.122000
     35 H7          39.8140    57.6000    16.1330 ha         1 V0M       0.111000
     36 H8          39.5640    60.0690    16.3130 ha         1 V0M       0.122000
     37 H9          37.9140    61.1230    12.2160 ha         1 V0M       0.110000
     38 H10         37.8450    63.1040    10.7250 ha         1 V0M       0.099000
     39 H11         35.6910    64.2930    10.3350 ha         1 V0M       0.104000
     40 H12         33.6160    63.5100    11.4400 ha         1 V0M       0.110000
     41 H13         30.4510    60.4640     9.5190 hc         1 V0M       0.070200
     42 H14         29.8820    58.8180     9.2340 hc         1 V0M       0.070200
     43 H15         27.7210    61.1190     9.7210 ha         1 V0M       0.103000
     44 H16         25.8920    61.2520    11.4240 ha         1 V0M       0.092500
     45 H17         26.0720    59.9640    13.5550 ha         1 V0M       0.092500
     46 H18         28.0830    58.5380    13.9900 ha         1 V0M       0.103000
     47 H19         31.4250    61.1300    11.4760 hn         1 V0M       0.294500
     48 H20         35.0190    59.4650    13.4230 hn         1 V0M       0.541000
     49 O2          32.9760    58.6190     9.4980 o          1 V0M      -0.708500
     50 O3          32.3470    56.8990    10.5970 o          1 V0M      -0.708500
@<TRIPOS>BOND
     1     1     2 1   
     2     1    18 1   
     3     1    19 1   
     4     1    25 1   
     5     2     3 1   
     6     2    30 1   
     7     2    31 1   
     8     3    20 ar  
     9     3    24 ar  
    10     4    26 2   
    11     5     6 1   
    12     5    26 1   
    13     5    32 1   
    14     5    33 1   
    15     6     7 ar  
    16     6    17 ar  
    17     7    14 ar  
    18     7    27 1   
    19     8     9 ar  
    20     8    13 ar  
    21     8    27 1   
    22     9    10 ar  
    23     9    29 1   
    24    10    11 ar  
    25    10    34 1   
    26    11    12 ar  
    27    11    35 1   
    28    12    13 ar  
    29    12    36 1   
    30    13    28 1   
    31    14    15 ar  
    32    14    37 1   
    33    15    16 ar  
    34    15    38 1   
    35    16    17 ar  
    36    16    39 1   
    37    17    40 1   
    38    18    49 1   
    39    18    50 1   
    40    19    20 1   
    41    19    41 1   
    42    19    42 1   
    43    20    21 ar  
    44    21    22 ar  
    45    21    43 1   
    46    22    23 ar  
    47    22    44 1   
    48    23    24 ar  
    49    23    45 1   
    50    24    46 1   
    51    25    26 1   
    52    25    47 1   
    53    27    48 1   
@<TRIPOS>SUBSTRUCTURE
     1 V0M         1 TEMP              0 ****  ****    0 ROOT
