@<TRIPOS>MOLECULE
V0N
   49    50     1     0     0
SMALL
No Charge or Current Charge


@<TRIPOS>ATOM
      1 C1          -0.5040     0.3500    -0.3420 c3         1 V0N       0.215800
      2 C2           2.0530     0.6120    -0.4570 c3         1 V0N      -0.031100
      3 N2          -1.6600    -0.3460     0.2760 n3         1 V0N      -0.820600
      4 C3          -3.0330     0.1770     0.0160 c5         1 V0N       0.244500
      5 C4          -3.7920    -0.7960     0.9790 c5         1 V0N       0.128300
      6 C5          -3.2740    -2.1610     0.4300 c5         1 V0N       0.104300
      7 C6          -1.7800    -1.8360     0.0230 c5         1 V0N       0.240500
      8 O7          -3.4070    -3.1940     1.4190 oh         1 V0N      -0.658000
      9 O8          -3.3610    -0.6050     2.3370 oh         1 V0N      -0.654000
     10 C9          -1.4430    -2.3700    -1.4190 c3         1 V0N       0.143600
     11 O10         -2.2670    -1.7970    -2.4550 oh         1 V0N      -0.666000
     12 C11         -3.2690     1.6670     0.3600 c3         1 V0N      -0.153400
     13 C12         -3.0180     2.5770    -0.8400 c          1 V0N       0.595100
     14 N13         -1.9960     3.4870    -0.6930 ns         1 V0N      -0.505900
     15 C14         -1.5960     4.4520    -1.7190 c3         1 V0N       0.095300
     16 O15         -3.7080     2.5380    -1.8480 o          1 V0N      -0.619100
     17 C16          0.8660    -0.1600     0.1570 c3         1 V0N      -0.082400
     18 C19          3.3930     0.0930     0.0450 ca         1 V0N      -0.089300
     19 C20          4.0500    -0.9510    -0.6380 ca         1 V0N      -0.083500
     20 C21          5.2850    -1.4340    -0.1700 ca         1 V0N      -0.149500
     21 C22          5.8640    -0.8760     0.9800 ca         1 V0N       0.167000
     22 C23          5.2150     0.1610     1.6670 ca         1 V0N      -0.149500
     23 C24          3.9800     0.6460     1.2010 ca         1 V0N      -0.083500
     24 F25          7.0500    -1.3410     1.4290 f          1 V0N      -0.181000
     25 H1          -0.5460     0.2700    -1.4360 h1         1 V0N       0.044200
     26 H2           2.0050     0.5350    -1.5510 hc         1 V0N       0.048200
     27 H3          -3.3550     0.0110    -1.0220 h1         1 V0N       0.054700
     28 H4          -4.8830    -0.7040     0.8900 h1         1 V0N       0.048700
     29 H5          -3.8550    -2.4310    -0.4630 h1         1 V0N       0.065700
     30 H6          -1.0950    -2.3650     0.7010 h1         1 V0N       0.070700
     31 H9          -0.3850    -2.1740    -1.6330 h1         1 V0N       0.030200
     32 HO10        -1.9550    -2.1670    -3.3100 ho         1 V0N       0.445000
     33 H1A         -0.5460     1.4170    -0.0980 h1         1 V0N       0.044200
     34 H11         -4.3200     1.7970     0.6380 hc         1 V0N       0.074700
     35 H11A        -2.6460     1.9650     1.2110 hc         1 V0N       0.074700
     36 HN13        -1.4930     3.4780     0.1870 hn         1 V0N       0.319500
     37 H14         -0.7490     5.0470    -1.3520 h1         1 V0N       0.037700
     38 H16          0.9030    -0.0660     1.2490 hc         1 V0N       0.043700
     39 H20          3.6030    -1.3880    -1.5290 ha         1 V0N       0.113500
     40 H21          5.7930    -2.2380    -0.6970 ha         1 V0N       0.130500
     41 H2A          1.9500     1.6790    -0.2220 hc         1 V0N       0.048200
     42 H23          5.6690     0.5870     2.5580 ha         1 V0N       0.130500
     43 H24          3.4790     1.4480     1.7380 ha         1 V0N       0.113500
     44 H14A        -1.2960     3.9190    -2.6300 h1         1 V0N       0.037700
     45 H14B        -2.4360     5.1200    -1.9450 h1         1 V0N       0.037700
     46 H16A         0.9800    -1.2240    -0.0750 hc         1 V0N       0.043700
     47 H9A         -1.5660    -3.4610    -1.4110 h1         1 V0N       0.030200
     48 HO7         -3.4380    -2.7050     2.2740 ho         1 V0N       0.450000
     49 HO8         -2.4120    -0.3620     2.2120 ho         1 V0N       0.456000
@<TRIPOS>BOND
     1     1     3 1   
     2     1    17 1   
     3     1    25 1   
     4     1    33 1   
     5     2    17 1   
     6     2    18 1   
     7     2    26 1   
     8     2    41 1   
     9     3     4 1   
    10     3     7 1   
    11     4     5 1   
    12     4    12 1   
    13     4    27 1   
    14     5     6 1   
    15     5     9 1   
    16     5    28 1   
    17     6     7 1   
    18     6     8 1   
    19     6    29 1   
    20     7    10 1   
    21     7    30 1   
    22     8    48 1   
    23     9    49 1   
    24    10    11 1   
    25    10    31 1   
    26    10    47 1   
    27    11    32 1   
    28    12    13 1   
    29    12    34 1   
    30    12    35 1   
    31    13    14 1   
    32    13    16 2   
    33    14    15 1   
    34    14    36 1   
    35    15    37 1   
    36    15    44 1   
    37    15    45 1   
    38    17    38 1   
    39    17    46 1   
    40    18    19 ar  
    41    18    23 ar  
    42    19    20 ar  
    43    19    39 1   
    44    20    21 ar  
    45    20    40 1   
    46    21    22 ar  
    47    21    24 1   
    48    22    23 ar  
    49    22    42 1   
    50    23    43 1   
@<TRIPOS>SUBSTRUCTURE
     1 V0N         1 TEMP              0 ****  ****    0 ROOT
