@<TRIPOS>MOLECULE
V0N
   49    50     1     0     0
SMALL
abcg2


@<TRIPOS>ATOM
      1 C1          -0.7290    -0.2100    -1.0130 c3         1 V0N       0.215800
      2 C2           1.7380     0.2630    -1.2740 c3         1 V0N      -0.031100
      3 N2          -1.8140    -0.5810    -0.1370 n3         1 V0N      -0.820600
      4 C3          -2.9890     0.2730    -0.0690 c5         1 V0N       0.244500
      5 C4          -4.0560    -0.6150     0.5660 c5         1 V0N       0.128300
      6 C5          -3.6840    -1.9870     0.0150 c5         1 V0N       0.104300
      7 C6          -2.1570    -1.9800     0.0820 c5         1 V0N       0.240500
      8 O7          -4.2090    -3.0610     0.7550 oh         1 V0N      -0.658000
      9 O8          -3.9490    -0.5960     1.9690 oh         1 V0N      -0.654000
     10 C9          -1.5200    -3.0000    -0.8450 c3         1 V0N       0.143600
     11 O10         -1.9900    -2.8490    -2.1650 oh         1 V0N      -0.666000
     12 C11         -2.7660     1.5650     0.7240 c3         1 V0N      -0.153400
     13 C12         -1.9640     2.6020    -0.0300 c          1 V0N       0.595100
     14 N13         -0.8450     3.0230     0.5740 ns         1 V0N      -0.505900
     15 C14          0.0380     4.0050    -0.0080 c3         1 V0N       0.095300
     16 O15         -2.3260     3.0390    -1.1170 o          1 V0N      -0.619100
     17 C16          0.6220    -0.1330    -0.3090 c3         1 V0N      -0.082400
     18 C19          3.0730     0.3760    -0.5950 ca         1 V0N      -0.089300
     19 C20          3.8330    -0.7610    -0.3240 ca         1 V0N      -0.083500
     20 C21          5.0500    -0.6790     0.3380 ca         1 V0N      -0.149500
     21 C22          5.5040     0.5650     0.7310 ca         1 V0N       0.167000
     22 C23          4.7840     1.7170     0.4820 ca         1 V0N      -0.149500
     23 C24          3.5690     1.6090    -0.1810 ca         1 V0N      -0.083500
     24 F25          6.6830     0.6580     1.3710 f          1 V0N      -0.181000
     25 H1          -0.6490    -0.8840    -1.8730 h1         1 V0N       0.044200
     26 H2           1.7960    -0.4740    -2.0810 hc         1 V0N       0.048200
     27 H3          -3.3520     0.5500    -1.0710 h1         1 V0N       0.054700
     28 H4          -5.0590    -0.2990     0.2460 h1         1 V0N       0.048700
     29 H5          -3.9990    -2.0330    -1.0340 h1         1 V0N       0.065700
     30 H6          -1.8540    -2.2970     1.0930 h1         1 V0N       0.070700
     31 H9          -0.4260    -2.9130    -0.7940 h1         1 V0N       0.030200
     32 HO10        -1.5480    -3.5010    -2.7160 ho         1 V0N       0.445000
     33 H1A         -0.9540     0.7660    -1.4500 h1         1 V0N       0.044200
     34 H11         -3.7400     2.0210     0.9280 hc         1 V0N       0.074700
     35 H11A        -2.3120     1.3270     1.6850 hc         1 V0N       0.074700
     36 HN13        -0.5940     2.6270     1.4640 hn         1 V0N       0.319500
     37 H14          0.8770     4.1550     0.6650 h1         1 V0N       0.037700
     38 H16          0.5660     0.5910     0.5080 hc         1 V0N       0.043700
     39 H20          3.4710    -1.7340    -0.6360 ha         1 V0N       0.113500
     40 H21          5.6350    -1.5670     0.5390 ha         1 V0N       0.130500
     41 H2A          1.4840     1.2160    -1.7460 hc         1 V0N       0.048200
     42 H23          5.1630     2.6810     0.7950 ha         1 V0N       0.130500
     43 H24          3.0030     2.5100    -0.3840 ha         1 V0N       0.113500
     44 H14A         0.4270     3.6780    -0.9730 h1         1 V0N       0.037700
     45 H14B        -0.4620     4.9640    -0.1520 h1         1 V0N       0.037700
     46 H16A         0.8600    -1.0990     0.1480 hc         1 V0N       0.043700
     47 H9A         -1.7680    -3.9910    -0.4450 h1         1 V0N       0.030200
     48 HO7         -5.1160    -3.2140     0.4760 ho         1 V0N       0.450000
     49 HO8         -4.2920    -1.4380     2.2930 ho         1 V0N       0.456000
@<TRIPOS>BOND
     1     1     3 1   
     2     1    17 1   
     3     1    25 1   
     4     1    33 1   
     5     2    17 1   
     6     2    18 1   
     7     2    26 1   
     8     2    41 1   
     9     3     4 1   
    10     3     7 1   
    11     4     5 1   
    12     4    12 1   
    13     4    27 1   
    14     5     6 1   
    15     5     9 1   
    16     5    28 1   
    17     6     7 1   
    18     6     8 1   
    19     6    29 1   
    20     7    10 1   
    21     7    30 1   
    22     8    48 1   
    23     9    49 1   
    24    10    11 1   
    25    10    31 1   
    26    10    47 1   
    27    11    32 1   
    28    12    13 1   
    29    12    34 1   
    30    12    35 1   
    31    13    14 1   
    32    13    16 2   
    33    14    15 1   
    34    14    36 1   
    35    15    37 1   
    36    15    44 1   
    37    15    45 1   
    38    17    38 1   
    39    17    46 1   
    40    18    19 ar  
    41    18    23 ar  
    42    19    20 ar  
    43    19    39 1   
    44    20    21 ar  
    45    20    40 1   
    46    21    22 ar  
    47    21    24 1   
    48    22    23 ar  
    49    22    42 1   
    50    23    43 1   
@<TRIPOS>SUBSTRUCTURE
     1 V0N         1 TEMP              0 ****  ****    0 ROOT
