@<TRIPOS>MOLECULE
V0O
   26    27     1     0     0
SMALL
abcg2


@<TRIPOS>ATOM
      1 N1          25.4160    15.3100   -15.3780 nu         1 V0O      -0.897100
      2 C7          23.9020    14.7780   -13.4300 cx         1 V0O      -0.123900
      3 C8          24.6830    16.0190   -13.0910 cx         1 V0O      -0.123900
      4 O1          26.0320    14.4140   -20.4060 o          1 V0O      -0.460000
      5 C1          25.6070    12.1510   -21.7940 c3         1 V0O       0.169600
      6 C5          25.3140    14.3730   -16.3480 cc         1 V0O       0.715300
      7 C6          25.2870    14.9870   -13.9910 cx         1 V0O       0.141500
      8 C4          24.8900    12.3520   -17.6500 cc         1 V0O      -0.226000
      9 C3          25.3690    13.4240   -18.3410 cd         1 V0O       0.282500
     10 C2          25.6320    13.4430   -19.7960 c          1 V0O       0.519600
     11 O           25.3760    12.2590   -20.3660 os         1 V0O      -0.458100
     12 C           25.2370    10.7470   -22.2090 c3         1 V0O      -0.097100
     13 N           25.6120    14.5630   -17.6050 nd         1 V0O      -0.691000
     14 S           24.7160    12.7540   -15.9820 ss         1 V0O      -0.093400
     15 H1          25.9300    16.1430   -15.6290 hn         1 V0O       0.509000
     16 H2          23.0760    14.8830   -14.1200 hc         1 V0O       0.083700
     17 H3          23.7820    14.0160   -12.6730 hc         1 V0O       0.083700
     18 H4          25.0980    16.1150   -12.0970 hc         1 V0O       0.083700
     19 H5          24.3690    16.9460   -13.5520 hc         1 V0O       0.083700
     20 H6          26.6570    12.3710   -21.9900 h1         1 V0O       0.051200
     21 H7          24.9960    12.8990   -22.3000 h1         1 V0O       0.051200
     22 H8          26.0820    14.3710   -13.5810 h1         1 V0O       0.082700
     23 H9          24.6320    11.3750   -18.0200 h4         1 V0O       0.172000
     24 H10         25.4060    10.6320   -23.2810 hc         1 V0O       0.047367
     25 H11         25.8490    10.0110   -21.6840 hc         1 V0O       0.047367
     26 H12         24.1860    10.5430   -22.0020 hc         1 V0O       0.047367
@<TRIPOS>BOND
     1     1     6 1   
     2     1     7 1   
     3     1    15 1   
     4     2     3 1   
     5     2     7 1   
     6     2    16 1   
     7     2    17 1   
     8     3     7 1   
     9     3    18 1   
    10     3    19 1   
    11     4    10 2   
    12     5    11 1   
    13     5    12 1   
    14     5    20 1   
    15     5    21 1   
    16     6    13 2   
    17     6    14 1   
    18     7    22 1   
    19     8     9 2   
    20     8    14 1   
    21     8    23 1   
    22     9    10 1   
    23     9    13 1   
    24    10    11 1   
    25    12    24 1   
    26    12    25 1   
    27    12    26 1   
@<TRIPOS>SUBSTRUCTURE
     1 V0O         1 TEMP              0 ****  ****    0 ROOT
