@<TRIPOS>MOLECULE
V0O
   26    27     1     0     0
SMALL
No Charge or Current Charge


@<TRIPOS>ATOM
      1 N1          25.4320    15.0730   -15.2560 nu         1 V0O      -0.897100
      2 C7          23.8320    14.9740   -13.3230 cx         1 V0O      -0.123900
      3 C8          24.7480    16.1510   -13.0910 cx         1 V0O      -0.123900
      4 O1          25.9580    14.4670   -20.4410 o          1 V0O      -0.460000
      5 C1          25.5670    12.1850   -21.8830 c3         1 V0O       0.169600
      6 C5          25.3220    14.1370   -16.2270 cc         1 V0O       0.715300
      7 C6          25.2470    14.9420   -13.8410 cx         1 V0O       0.141500
      8 C4          25.0380    12.2630   -17.6920 cc         1 V0O      -0.226000
      9 C3          25.4190    13.4350   -18.3260 cd         1 V0O       0.282500
     10 C2          25.6210    13.4600   -19.8260 c          1 V0O       0.519600
     11 O           25.3980    12.2540   -20.4560 os         1 V0O      -0.458100
     12 C           25.2560    10.7430   -22.3130 c3         1 V0O      -0.097100
     13 N           25.5800    14.5200   -17.4510 nd         1 V0O      -0.691000
     14 S           24.8680    12.4780   -15.9720 ss         1 V0O      -0.093400
     15 H1          25.7280    15.9560   -15.6650 hn         1 V0O       0.509000
     16 H2          23.0260    15.0920   -14.0430 hc         1 V0O       0.083700
     17 H3          23.5940    14.3400   -12.4730 hc         1 V0O       0.083700
     18 H4          25.1260    16.3080   -12.0840 hc         1 V0O       0.083700
     19 H5          24.5530    17.0620   -13.6510 hc         1 V0O       0.083700
     20 H6          26.5960    12.4390   -22.1690 h1         1 V0O       0.051200
     21 H7          24.8810    12.8750   -22.3930 h1         1 V0O       0.051200
     22 H8          25.9580    14.2840   -13.3360 h1         1 V0O       0.082700
     23 H9          24.8490    11.2920   -18.1310 h4         1 V0O       0.172000
     24 H10         25.3720    10.6380   -23.3980 hc         1 V0O       0.047367
     25 H11         25.9400    10.0390   -21.8250 hc         1 V0O       0.047367
     26 H12         24.2270    10.4740   -22.0490 hc         1 V0O       0.047367
@<TRIPOS>BOND
     1     1     6 1   
     2     1     7 1   
     3     1    15 1   
     4     2     3 1   
     5     2     7 1   
     6     2    16 1   
     7     2    17 1   
     8     3     7 1   
     9     3    18 1   
    10     3    19 1   
    11     4    10 2   
    12     5    11 1   
    13     5    12 1   
    14     5    20 1   
    15     5    21 1   
    16     6    13 2   
    17     6    14 1   
    18     7    22 1   
    19     8     9 2   
    20     8    14 1   
    21     8    23 1   
    22     9    10 1   
    23     9    13 1   
    24    10    11 1   
    25    12    24 1   
    26    12    25 1   
    27    12    26 1   
@<TRIPOS>SUBSTRUCTURE
     1 V0O         1 TEMP              0 ****  ****    0 ROOT
