@<TRIPOS>MOLECULE
V0P
   56    59     1     0     0
SMALL
No Charge or Current Charge


@<TRIPOS>ATOM
      1 C02          5.9110     4.0450    21.4870 ca         1 V0P       0.601900
      2 C03          4.7140     4.5250    22.0230 ca         1 V0P      -0.229000
      3 C04          4.4300     5.8930    21.8950 ca         1 V0P      -0.033000
      4 C05          5.3750     6.6940    21.2340 ca         1 V0P      -0.211000
      5 C06          6.5540     6.1060    20.7310 ca         1 V0P       0.352300
      6 C07          7.6170     6.9630    20.0160 c3         1 V0P       0.104500
      7 C09          8.7960     7.8010    22.1070 c3         1 V0P       0.160800
      8 C10          8.3200     9.2810    22.0340 c3         1 V0P       0.166600
      9 C12          9.1060    11.3960    21.0280 ca         1 V0P       0.183100
     10 C13         10.0870    12.0450    20.2620 ca         1 V0P      -0.185000
     11 C14          9.9800    13.4160    19.9820 ca         1 V0P      -0.042000
     12 C15          8.8830    14.1410    20.4740 ca         1 V0P      -0.187000
     13 C16          7.8950    13.5060    21.2410 ca         1 V0P       0.178100
     14 C18          5.7770    13.7270    22.4850 c3         1 V0P       0.210900
     15 C19          4.7940    14.8440    22.8090 ca         1 V0P      -0.070300
     16 C20          3.6620    15.0520    21.9980 ca         1 V0P      -0.105000
     17 C21          2.7590    16.0840    22.2980 ca         1 V0P      -0.077000
     18 C22          2.9820    16.9150    23.4120 ca         1 V0P      -0.124000
     19 C23          2.0780    17.9500    23.7130 ca         1 V0P      -0.029000
     20 C24          2.3460    18.7500    24.8330 ca         1 V0P      -0.209000
     21 C25          3.4910    18.4700    25.5810 ca         1 V0P       0.619900
     22 C28          4.1200    16.7210    24.2400 ca         1 V0P       0.324000
     23 C29          5.0130    15.6800    23.9210 ca         1 V0P      -0.087000
     24 C30          8.0040    12.1270    21.5210 ca         1 V0P      -0.294000
     25 N01          6.2930     2.7690    21.5550 nv         1 V0P      -1.056900
     26 N08          8.8910     7.1210    20.7830 n7         1 V0P      -0.840400
     27 N26          3.8610    19.1620    26.6600 nv         1 V0P      -1.072900
     28 N27          4.3610    17.5060    25.3180 nb         1 V0P      -0.761000
     29 N31          6.8190     4.7820    20.8640 nb         1 V0P      -0.761000
     30 O11          9.2690    10.0470    21.2660 os         1 V0P      -0.329100
     31 O17          6.8440    14.2740    21.6930 os         1 V0P      -0.344100
     32 H1           4.0210     3.8560    22.5230 ha         1 V0P       0.121000
     33 H2           3.5110     6.3170    22.2950 ha         1 V0P       0.116000
     34 H3           5.1990     7.7600    21.1140 ha         1 V0P       0.124000
     35 H4           7.8260     6.4910    19.0470 h1         1 V0P       0.065700
     36 H5           7.1820     7.9450    19.7850 h1         1 V0P       0.065700
     37 H6           8.1070     7.2530    22.7650 h1         1 V0P       0.043200
     38 H7           9.7770     7.7880    22.6000 h1         1 V0P       0.043200
     39 H8           8.2490     9.6770    23.0550 h1         1 V0P       0.031700
     40 H9           7.3220     9.3270    21.5810 h1         1 V0P       0.031700
     41 H10         10.9340    11.4800    19.8830 ha         1 V0P       0.131000
     42 H11         10.7430    13.9140    19.3880 ha         1 V0P       0.114000
     43 H12          8.7960    15.2030    20.2590 ha         1 V0P       0.128000
     44 H13          5.2580    12.9290    21.9380 h1         1 V0P       0.041700
     45 H14          6.1670    13.3030    23.4200 h1         1 V0P       0.041700
     46 H15          3.4840    14.4160    21.1340 ha         1 V0P       0.123000
     47 H16          1.8870    16.2360    21.6640 ha         1 V0P       0.113000
     48 H17          1.1970    18.1280    23.1000 ha         1 V0P       0.117000
     49 H18          1.6830    19.5610    25.1120 ha         1 V0P       0.120000
     50 H19          5.8870    15.5250    24.5460 ha         1 V0P       0.128000
     51 H20          7.2450    11.6300    22.1140 ha         1 V0P       0.116000
     52 H21          7.2700     2.6120    21.3430 hn         1 V0P       0.471500
     53 H22          5.8900     2.1970    22.2880 hn         1 V0P       0.471500
     54 H23          9.2540     6.1720    20.9490 hn         1 V0P       0.429000
     55 H25          4.8190    19.0030    26.9440 hn         1 V0P       0.480500
     56 H26          3.5190    20.1130    26.7450 hn         1 V0P       0.480500
@<TRIPOS>BOND
     1     1     2 ar  
     2     1    25 1   
     3     1    29 ar  
     4     2     3 ar  
     5     2    32 1   
     6     3     4 ar  
     7     3    33 1   
     8     4     5 ar  
     9     4    34 1   
    10     5     6 1   
    11     5    29 ar  
    12     6    26 1   
    13     6    35 1   
    14     6    36 1   
    15     7     8 1   
    16     7    26 1   
    17     7    37 1   
    18     7    38 1   
    19     8    30 1   
    20     8    39 1   
    21     8    40 1   
    22     9    10 ar  
    23     9    24 ar  
    24     9    30 1   
    25    10    11 ar  
    26    10    41 1   
    27    11    12 ar  
    28    11    42 1   
    29    12    13 ar  
    30    12    43 1   
    31    13    24 ar  
    32    13    31 1   
    33    14    15 1   
    34    14    31 1   
    35    14    44 1   
    36    14    45 1   
    37    15    16 ar  
    38    15    23 ar  
    39    16    17 ar  
    40    16    46 1   
    41    17    18 ar  
    42    17    47 1   
    43    18    19 ar  
    44    18    22 ar  
    45    19    20 ar  
    46    19    48 1   
    47    20    21 ar  
    48    20    49 1   
    49    21    27 1   
    50    21    28 ar  
    51    22    23 ar  
    52    22    28 ar  
    53    23    50 1   
    54    24    51 1   
    55    25    52 1   
    56    25    53 1   
    57    26    54 1   
    58    27    55 1   
    59    27    56 1   
@<TRIPOS>SUBSTRUCTURE
     1 V0P         1 TEMP              0 ****  ****    0 ROOT
