@<TRIPOS>MOLECULE
V0P
   56    59     1     0     0
SMALL
bcc


@<TRIPOS>ATOM
      1 C02          6.0710     4.2700    22.0970 ca         1 V0P       0.667200
      2 C03          4.7960     4.6430    22.5620 ca         1 V0P      -0.312300
      3 C04          4.2950     5.8650    22.1770 ca         1 V0P      -0.051000
      4 C05          5.0510     6.6930    21.3470 ca         1 V0P      -0.294300
      5 C06          6.2930     6.2420    20.9370 ca         1 V0P       0.417600
      6 C07          7.1820     7.0760    20.0420 c3         1 V0P       0.104500
      7 C09          8.6080     7.9370    21.8340 c3         1 V0P       0.160800
      8 C10          8.2760     9.4120    21.7840 c3         1 V0P       0.143400
      9 C12          9.0950    11.3820    20.7150 ca         1 V0P       0.183100
     10 C13         10.0290    11.9410    19.8440 ca         1 V0P      -0.203000
     11 C14          9.9660    13.2970    19.5660 ca         1 V0P      -0.060000
     12 C15          8.9950    14.1070    20.1300 ca         1 V0P      -0.205000
     13 C16          8.0650    13.5430    21.0010 ca         1 V0P       0.178100
     14 C18          6.1160    13.8700    22.3390 c3         1 V0P       0.187700
     15 C19          5.1820    14.9980    22.6630 ca         1 V0P      -0.070300
     16 C20          4.5280    15.6830    21.6150 ca         1 V0P      -0.123000
     17 C21          3.6580    16.7010    21.8990 ca         1 V0P      -0.095000
     18 C22          3.4000    17.0760    23.2320 ca         1 V0P      -0.189300
     19 C23          2.5090    18.1200    23.5880 ca         1 V0P      -0.047000
     20 C24          2.3080    18.4210    24.8950 ca         1 V0P      -0.292300
     21 C25          3.0110    17.6730    25.8920 ca         1 V0P       0.685200
     22 C28          4.0470    16.3960    24.2900 ca         1 V0P       0.454600
     23 C29          4.9460    15.3550    23.9670 ca         1 V0P      -0.170300
     24 C30          8.1110    12.1810    21.3000 ca         1 V0P      -0.312000
     25 N01          6.6010     3.0520    22.4070 nv         1 V0P      -0.946500
     26 N08          8.5280     7.2870    20.5390 n7         1 V0P      -0.785200
     27 N26          2.7840    17.9430    27.2000 nv         1 V0P      -0.962500
     28 N27          3.8470    16.7050    25.5920 nb         1 V0P      -0.761000
     29 N31          6.7900     5.0600    21.3050 nb         1 V0P      -0.761000
     30 O11          9.2130    10.0620    20.9440 os         1 V0P      -0.305900
     31 O17          7.1490    14.3880    21.5180 os         1 V0P      -0.320900
     32 H1           4.2330     3.9820    23.2080 ha         1 V0P       0.139000
     33 H2           3.3200     6.1810    22.5250 ha         1 V0P       0.134000
     34 H3           4.6850     7.6630    21.0380 ha         1 V0P       0.142000
     35 H4           7.2630     6.5830    19.0690 h1         1 V0P       0.065700
     36 H5           6.7010     8.0390    19.8510 h1         1 V0P       0.065700
     37 H6           7.9480     7.4930    22.5940 h1         1 V0P       0.043200
     38 H7           9.6270     7.8160    22.2080 h1         1 V0P       0.043200
     39 H8           8.3190     9.8160    22.8020 h1         1 V0P       0.031700
     40 H9           7.2550     9.5710    21.4160 h1         1 V0P       0.031700
     41 H10         10.7890    11.3150    19.3940 ha         1 V0P       0.149000
     42 H11         10.6900    13.7320    18.8880 ha         1 V0P       0.132000
     43 H12          8.9510    15.1650    19.9040 ha         1 V0P       0.146000
     44 H13          5.5740    13.0770    21.8100 h1         1 V0P       0.041700
     45 H14          6.5250    13.4380    23.2580 h1         1 V0P       0.041700
     46 H15          4.7110    15.3980    20.5870 ha         1 V0P       0.141000
     47 H16          3.1530    17.2290    21.0980 ha         1 V0P       0.131000
     48 H17          1.9920    18.6710    22.8120 ha         1 V0P       0.135000
     49 H18          1.6310    19.2120    25.1920 ha         1 V0P       0.138000
     50 H19          5.4460    14.8390    24.7790 ha         1 V0P       0.146000
     51 H20          7.3980    11.7480    21.9860 ha         1 V0P       0.134000
     52 H21          7.5930     2.9480    22.2710 hn         1 V0P       0.416300
     53 H22          6.2390     2.5730    23.2150 hn         1 V0P       0.416300
     54 H23          8.9920     6.3900    20.5980 hn         1 V0P       0.373800
     55 H25          3.4170    17.5520    27.8770 hn         1 V0P       0.425300
     56 H26          2.3580    18.8180    27.4550 hn         1 V0P       0.425300
@<TRIPOS>BOND
     1     1     2 ar  
     2     1    25 1   
     3     1    29 ar  
     4     2     3 ar  
     5     2    32 1   
     6     3     4 ar  
     7     3    33 1   
     8     4     5 ar  
     9     4    34 1   
    10     5     6 1   
    11     5    29 ar  
    12     6    26 1   
    13     6    35 1   
    14     6    36 1   
    15     7     8 1   
    16     7    26 1   
    17     7    37 1   
    18     7    38 1   
    19     8    30 1   
    20     8    39 1   
    21     8    40 1   
    22     9    10 ar  
    23     9    24 ar  
    24     9    30 1   
    25    10    11 ar  
    26    10    41 1   
    27    11    12 ar  
    28    11    42 1   
    29    12    13 ar  
    30    12    43 1   
    31    13    24 ar  
    32    13    31 1   
    33    14    15 1   
    34    14    31 1   
    35    14    44 1   
    36    14    45 1   
    37    15    16 ar  
    38    15    23 ar  
    39    16    17 ar  
    40    16    46 1   
    41    17    18 ar  
    42    17    47 1   
    43    18    19 ar  
    44    18    22 ar  
    45    19    20 ar  
    46    19    48 1   
    47    20    21 ar  
    48    20    49 1   
    49    21    27 1   
    50    21    28 ar  
    51    22    23 ar  
    52    22    28 ar  
    53    23    50 1   
    54    24    51 1   
    55    25    52 1   
    56    25    53 1   
    57    26    54 1   
    58    27    55 1   
    59    27    56 1   
@<TRIPOS>SUBSTRUCTURE
     1 V0P         1 TEMP              0 ****  ****    0 ROOT
