@<TRIPOS>MOLECULE
V0Q
   39    40     1     0     0
SMALL
No Charge or Current Charge


@<TRIPOS>ATOM
      1 C01        -23.6750    22.9070    -5.7880 c3         1 V0Q      -0.130100
      2 C02        -22.6820    22.9170    -4.6060 c3         1 V0Q       0.176800
      3 C04        -24.3240    23.2030    -2.7320 c6         1 V0Q       0.173300
      4 C05        -24.7540    22.6760    -1.3270 c6         1 V0Q       0.193800
      5 C09        -24.3740    20.7830     1.2530 ca         1 V0Q      -0.308500
      6 C10        -23.4570    19.7220     1.4060 ca         1 V0Q      -0.015500
      7 C11        -22.3780    19.8470     2.2970 ca         1 V0Q      -0.121000
      8 C12        -22.2020    21.0260     3.0470 ca         1 V0Q      -0.031300
      9 C13        -21.0260    21.1600     4.0080 c3         1 V0Q       0.201900
     10 C14        -23.1240    22.0800     2.8980 ca         1 V0Q      -0.121000
     11 C15        -24.2060    21.9620     2.0090 ca         1 V0Q      -0.015500
     12 C17        -24.0100    20.4280    -1.9330 c6         1 V0Q       0.193800
     13 C18        -23.5770    20.9450    -3.3410 c6         1 V0Q       0.173300
     14 N03        -23.2100    22.3950    -3.3190 n3         1 V0Q      -0.736600
     15 N06        -25.1280    21.2310    -1.3540 n3         1 V0Q      -0.723500
     16 O08        -26.8310    21.5520     0.5000 o          1 V0Q      -0.537000
     17 O16        -26.0490    19.2080    -0.1290 o          1 V0Q      -0.537000
     18 S07        -25.7600    20.6270     0.1090 sy         1 V0Q       1.157600
     19 O1         -21.3850    20.6870     5.3130 oh         1 V0Q      -0.656000
     20 H1         -23.1890    23.3100    -6.6850 hc         1 V0Q       0.038367
     21 H2         -24.0110    21.8900    -6.0180 hc         1 V0Q       0.038367
     22 H3         -24.5520    23.5280    -5.5770 hc         1 V0Q       0.038367
     23 H4         -21.7990    22.3310    -4.8990 h1         1 V0Q       0.049700
     24 H5         -22.3340    23.9490    -4.4630 h1         1 V0Q       0.049700
     25 H6         -24.0230    24.2560    -2.6360 h1         1 V0Q       0.043200
     26 H7         -25.2050    23.1770    -3.3890 h1         1 V0Q       0.043200
     27 H8         -23.9200    22.8450    -0.6290 h1         1 V0Q       0.059700
     28 H9         -25.5950    23.2910    -0.9780 h1         1 V0Q       0.059700
     29 H10        -23.5750    18.8010     0.8370 ha         1 V0Q       0.133500
     30 H11        -21.6750    19.0240     2.4060 ha         1 V0Q       0.126000
     31 H12        -20.1730    20.5890     3.6170 h1         1 V0Q       0.032200
     32 H13        -20.7180    22.2140     4.0560 h1         1 V0Q       0.032200
     33 H14        -23.0030    22.9940     3.4760 ha         1 V0Q       0.126000
     34 H15        -24.9080    22.7880     1.9110 ha         1 V0Q       0.133500
     35 H16        -24.2990    19.3720    -2.0350 h1         1 V0Q       0.059700
     36 H17        -23.1310    20.4590    -1.2720 h1         1 V0Q       0.059700
     37 H18        -24.4090    20.7700    -4.0380 h1         1 V0Q       0.043200
     38 H19        -22.7280    20.3410    -3.6920 h1         1 V0Q       0.043200
     39 H21        -20.5910    20.8000     5.8830 ho         1 V0Q       0.451000
@<TRIPOS>BOND
     1     1     2 1   
     2     1    20 1   
     3     1    21 1   
     4     1    22 1   
     5     2    14 1   
     6     2    23 1   
     7     2    24 1   
     8     3     4 1   
     9     3    14 1   
    10     3    25 1   
    11     3    26 1   
    12     4    15 1   
    13     4    27 1   
    14     4    28 1   
    15     5     6 ar  
    16     5    11 ar  
    17     5    18 1   
    18     6     7 ar  
    19     6    29 1   
    20     7     8 ar  
    21     7    30 1   
    22     8     9 1   
    23     8    10 ar  
    24     9    19 1   
    25     9    31 1   
    26     9    32 1   
    27    10    11 ar  
    28    10    33 1   
    29    11    34 1   
    30    12    13 1   
    31    12    15 1   
    32    12    35 1   
    33    12    36 1   
    34    13    14 1   
    35    13    37 1   
    36    13    38 1   
    37    15    18 1   
    38    16    18 2   
    39    17    18 2   
    40    19    39 1   
@<TRIPOS>SUBSTRUCTURE
     1 V0Q         1 TEMP              0 ****  ****    0 ROOT
