@<TRIPOS>MOLECULE
V0Q
   39    40     1     0     0
SMALL
abcg2


@<TRIPOS>ATOM
      1 C01        -24.0030    22.9580    -5.8610 c3         1 V0Q      -0.130100
      2 C02        -22.9360    23.0250    -4.7700 c3         1 V0Q       0.176800
      3 C04        -24.3620    23.2200    -2.8100 c6         1 V0Q       0.173300
      4 C05        -24.5040    22.7570    -1.3710 c6         1 V0Q       0.193800
      5 C09        -24.2080    20.7040     1.2630 ca         1 V0Q      -0.308500
      6 C10        -23.2800    19.6720     1.3700 ca         1 V0Q      -0.015500
      7 C11        -22.3260    19.7260     2.3690 ca         1 V0Q      -0.121000
      8 C12        -22.2890    20.7880     3.2730 ca         1 V0Q      -0.031300
      9 C13        -21.2480    20.7820     4.3560 c3         1 V0Q       0.201900
     10 C14        -23.2250    21.8080     3.1510 ca         1 V0Q      -0.121000
     11 C15        -24.1830    21.7710     2.1480 ca         1 V0Q      -0.015500
     12 C17        -23.6850    20.5670    -2.0340 c6         1 V0Q       0.193800
     13 C18        -23.5550    21.0740    -3.4590 c6         1 V0Q       0.173300
     14 N03        -23.2960    22.4970    -3.4670 n3         1 V0Q      -0.736600
     15 N06        -24.7500    21.3160    -1.3690 n3         1 V0Q      -0.723500
     16 O08        -26.5160    21.5370     0.3760 o          1 V0Q      -0.537000
     17 O16        -25.7040    19.2620    -0.3190 o          1 V0Q      -0.537000
     18 S07        -25.4270    20.6570    -0.0170 sy         1 V0Q       1.157600
     19 O1         -21.3490    21.9450     5.1300 oh         1 V0Q      -0.656000
     20 H1         -23.6140    23.3890    -6.7840 hc         1 V0Q       0.038367
     21 H2         -24.3040    21.9330    -6.0810 hc         1 V0Q       0.038367
     22 H3         -24.8980    23.5200    -5.5920 hc         1 V0Q       0.038367
     23 H4         -22.0440    22.4890    -5.1070 h1         1 V0Q       0.049700
     24 H5         -22.6330    24.0660    -4.6310 h1         1 V0Q       0.049700
     25 H6         -24.1230    24.2870    -2.8060 h1         1 V0Q       0.043200
     26 H7         -25.3350    23.1050    -3.3130 h1         1 V0Q       0.043200
     27 H8         -23.5910    23.0000    -0.8130 h1         1 V0Q       0.059700
     28 H9         -25.3400    23.2770    -0.9090 h1         1 V0Q       0.059700
     29 H10        -23.2980    18.8280     0.6940 ha         1 V0Q       0.133500
     30 H11        -21.6050    18.9220     2.4540 ha         1 V0Q       0.126000
     31 H12        -21.3880    19.8750     4.9610 h1         1 V0Q       0.032200
     32 H13        -20.2600    20.6860     3.8860 h1         1 V0Q       0.032200
     33 H14        -23.2260    22.6400     3.8400 ha         1 V0Q       0.126000
     34 H15        -24.9100    22.5690     2.0760 ha         1 V0Q       0.133500
     35 H16        -23.9330    19.5080    -2.0540 h1         1 V0Q       0.059700
     36 H17        -22.7320    20.6900    -1.5060 h1         1 V0Q       0.059700
     37 H18        -24.4690    20.7990    -4.0080 h1         1 V0Q       0.043200
     38 H19        -22.7210    20.5530    -3.9350 h1         1 V0Q       0.043200
     39 H21        -20.7200    21.8820     5.8540 ho         1 V0Q       0.451000
@<TRIPOS>BOND
     1     1     2 1   
     2     1    20 1   
     3     1    21 1   
     4     1    22 1   
     5     2    14 1   
     6     2    23 1   
     7     2    24 1   
     8     3     4 1   
     9     3    14 1   
    10     3    25 1   
    11     3    26 1   
    12     4    15 1   
    13     4    27 1   
    14     4    28 1   
    15     5     6 ar  
    16     5    11 ar  
    17     5    18 1   
    18     6     7 ar  
    19     6    29 1   
    20     7     8 ar  
    21     7    30 1   
    22     8     9 1   
    23     8    10 ar  
    24     9    19 1   
    25     9    31 1   
    26     9    32 1   
    27    10    11 ar  
    28    10    33 1   
    29    11    34 1   
    30    12    13 1   
    31    12    15 1   
    32    12    35 1   
    33    12    36 1   
    34    13    14 1   
    35    13    37 1   
    36    13    38 1   
    37    15    18 1   
    38    16    18 2   
    39    17    18 2   
    40    19    39 1   
@<TRIPOS>SUBSTRUCTURE
     1 V0Q         1 TEMP              0 ****  ****    0 ROOT
