@<TRIPOS>MOLECULE
V0R
   38    40     1     0     0
SMALL
abcg2


@<TRIPOS>ATOM
      1 C1          12.5700    -6.1800    -0.0260 cc         1 V0R       0.222300
      2 C10          7.8410    -6.9060     0.9700 ca         1 V0R       0.133100
      3 C11          9.0950    -6.3550     1.2040 ca         1 V0R      -0.184000
      4 C12          8.0930    -7.8900    -2.6910 c3         1 V0R       0.271900
      5 C13          8.2940    -6.8690    -3.7850 ca         1 V0R      -0.136300
      6 C14          9.3680    -6.9210    -4.6690 ca         1 V0R       0.359900
      7 C15          8.7210    -4.9990    -5.7330 ca         1 V0R       0.337900
      8 C2          11.3650    -5.7080     0.4090 cd         1 V0R      -0.191000
      9 C3          11.7000    -4.5110     1.1250 cd         1 V0R       0.299300
     10 C4          12.9790    -7.3720    -0.8060 c3         1 V0R      -0.143400
     11 C5          10.7850    -3.5530     1.8100 c3         1 V0R      -0.134400
     12 C6          10.0360    -6.2830     0.1700 ca         1 V0R       0.042000
     13 C7           9.6950    -6.7650    -1.0940 ca         1 V0R      -0.113000
     14 C8           8.4410    -7.3270    -1.3230 ca         1 V0R      -0.099300
     15 C9           7.5110    -7.3960    -0.2940 ca         1 V0R      -0.134000
     16 O1          13.5520    -5.3540     0.3830 os         1 V0R      -0.093700
     17 O3           8.8860    -9.0420    -2.9890 oh         1 V0R      -0.658000
     18 C16          7.6140    -4.8590    -4.9020 ca         1 V0R      -0.165000
     19 C17          7.4010    -5.8080    -3.9160 ca         1 V0R      -0.065000
     20 N1          12.9890    -4.2900     1.1070 nc         1 V0R      -0.360300
     21 N2           9.5850    -6.0100    -5.6260 nb         1 V0R      -0.668000
     22 H8           9.3420    -6.0010     2.1970 ha         1 V0R       0.118000
     23 H11          7.0340    -8.1690    -2.6800 h1         1 V0R       0.047700
     24 H4          10.0810    -7.7320    -4.6040 h4         1 V0R       0.034100
     25 H14          8.9180    -4.2720    -6.5140 h4         1 V0R       0.020100
     26 H1          13.8930    -7.8000    -0.3900 hc         1 V0R       0.068033
     27 H2          12.1900    -8.1210    -0.7870 hc         1 V0R       0.068033
     28 H3          13.1730    -7.1070    -1.8480 hc         1 V0R       0.068033
     29 H6          11.3160    -2.6330     2.0500 hc         1 V0R       0.057700
     30 H7           9.9310    -3.3190     1.1730 hc         1 V0R       0.057700
     31 H5          10.3980    -3.9810     2.7370 hc         1 V0R       0.057700
     32 H9          10.4020    -6.6840    -1.9070 ha         1 V0R       0.128000
     33 H10          6.5320    -7.8270    -0.4600 ha         1 V0R       0.129000
     34 H12          7.2360    -6.6360     2.7740 ho         1 V0R       0.465000
     35 H13          8.7900    -9.6620    -2.2550 ho         1 V0R       0.452000
     36 H15          6.9380    -4.0240    -5.0320 ha         1 V0R       0.124000
     37 H16          6.5500    -5.7280    -3.2490 ha         1 V0R       0.119000
     38 O2           6.8950    -7.0050     1.9480 oh         1 V0R      -0.537100
@<TRIPOS>BOND
     1     1     8 2   
     2     1    10 1   
     3     1    16 1   
     4     2     3 ar  
     5     2    15 ar  
     6     2    38 1   
     7     3    12 ar  
     8     3    22 1   
     9     4     5 1   
    10     4    14 1   
    11     4    17 1   
    12     4    23 1   
    13     5     6 ar  
    14     5    19 ar  
    15     6    21 ar  
    16     6    24 1   
    17     7    18 ar  
    18     7    21 ar  
    19     7    25 1   
    20     8     9 1   
    21     8    12 1   
    22     9    11 1   
    23     9    20 2   
    24    10    26 1   
    25    10    27 1   
    26    10    28 1   
    27    11    29 1   
    28    11    30 1   
    29    11    31 1   
    30    12    13 ar  
    31    13    14 ar  
    32    13    32 1   
    33    14    15 ar  
    34    15    33 1   
    35    16    20 1   
    36    17    35 1   
    37    18    19 ar  
    38    18    36 1   
    39    19    37 1   
    40    34    38 1   
@<TRIPOS>SUBSTRUCTURE
     1 V0R         1 TEMP              0 ****  ****    0 ROOT
