@<TRIPOS>MOLECULE
V0R
   38    40     1     0     0
SMALL
No Charge or Current Charge


@<TRIPOS>ATOM
      1 C1          12.6730    -6.3210     0.0880 cc         1 V0R       0.222300
      2 C10          7.7510    -6.5390     0.8070 ca         1 V0R       0.133100
      3 C11          9.0490    -6.1240     1.1420 ca         1 V0R      -0.184000
      4 C12          8.2460    -7.9050    -2.7380 c3         1 V0R       0.271900
      5 C13          8.2540    -6.8500    -3.8360 ca         1 V0R      -0.136300
      6 C14          9.4560    -6.4470    -4.4560 ca         1 V0R       0.359900
      7 C15          8.3520    -4.9250    -5.8130 ca         1 V0R       0.337900
      8 C2          11.4870    -5.8460     0.5880 cd         1 V0R      -0.191000
      9 C3          11.8710    -4.7340     1.3880 cd         1 V0R       0.299300
     10 C4          13.0150    -7.4860    -0.8000 c3         1 V0R      -0.143400
     11 C5          10.9840    -3.7390     2.0900 c3         1 V0R      -0.134400
     12 C6          10.1150    -6.2820     0.2310 ca         1 V0R       0.042000
     13 C7           9.8400    -6.8720    -1.0220 ca         1 V0R      -0.113000
     14 C8           8.5380    -7.2910    -1.3690 ca         1 V0R      -0.099300
     15 C9           7.4940    -7.1170    -0.4420 ca         1 V0R      -0.134000
     16 O1          13.7130    -5.5980     0.6160 os         1 V0R      -0.093700
     17 O3           9.1830    -8.9450    -3.0270 oh         1 V0R      -0.658000
     18 C16          7.1100    -5.2600    -5.2500 ca         1 V0R      -0.165000
     19 C17          7.0540    -6.2370    -4.2430 ca         1 V0R      -0.065000
     20 N1          13.1780    -4.5620     1.4470 nc         1 V0R      -0.360300
     21 N2           9.5130    -5.5030    -5.4280 nb         1 V0R      -0.668000
     22 H8           9.2310    -5.7150     2.1300 ha         1 V0R       0.118000
     23 H11          7.2380    -8.3420    -2.7060 h1         1 V0R       0.047700
     24 H4          10.4100    -6.8880    -4.1690 h4         1 V0R       0.034100
     25 H14          8.4220    -4.1690    -6.5950 h4         1 V0R       0.020100
     26 H1          14.0250    -7.8530    -0.5870 hc         1 V0R       0.068033
     27 H2          12.3200    -8.3190    -0.6430 hc         1 V0R       0.068033
     28 H3          12.9810    -7.1950    -1.8560 hc         1 V0R       0.068033
     29 H6          11.5040    -2.7880     2.2550 hc         1 V0R       0.057700
     30 H7          10.0890    -3.5180     1.4970 hc         1 V0R       0.057700
     31 H5          10.6690    -4.1160     3.0690 hc         1 V0R       0.057700
     32 H9          10.6290    -6.9770    -1.7570 ha         1 V0R       0.128000
     33 H10          6.4820    -7.4280    -0.6890 ha         1 V0R       0.129000
     34 H12          7.0880    -5.9730     2.5140 ho         1 V0R       0.465000
     35 H13          9.1360    -9.5730    -2.2740 ho         1 V0R       0.452000
     36 H15          6.2070    -4.7630    -5.5930 ha         1 V0R       0.124000
     37 H16          6.1020    -6.5090    -3.7900 ha         1 V0R       0.119000
     38 O2           6.7320    -6.3880     1.6990 oh         1 V0R      -0.537100
@<TRIPOS>BOND
     1     1     8 2   
     2     1    10 1   
     3     1    16 1   
     4     2     3 ar  
     5     2    15 ar  
     6     2    38 1   
     7     3    12 ar  
     8     3    22 1   
     9     4     5 1   
    10     4    14 1   
    11     4    17 1   
    12     4    23 1   
    13     5     6 ar  
    14     5    19 ar  
    15     6    21 ar  
    16     6    24 1   
    17     7    18 ar  
    18     7    21 ar  
    19     7    25 1   
    20     8     9 1   
    21     8    12 1   
    22     9    11 1   
    23     9    20 2   
    24    10    26 1   
    25    10    27 1   
    26    10    28 1   
    27    11    29 1   
    28    11    30 1   
    29    11    31 1   
    30    12    13 ar  
    31    13    14 ar  
    32    13    32 1   
    33    14    15 ar  
    34    15    33 1   
    35    16    20 1   
    36    17    35 1   
    37    18    19 ar  
    38    18    36 1   
    39    19    37 1   
    40    34    38 1   
@<TRIPOS>SUBSTRUCTURE
     1 V0R         1 TEMP              0 ****  ****    0 ROOT
