@<TRIPOS>MOLECULE
V0T
   35    36     1     0     0
SMALL
abcg2


@<TRIPOS>ATOM
      1 C02        -23.1050    23.4390    -3.4410 c6         1 V0T       0.186300
      2 C03        -22.1700    22.4730    -2.7290 c6         1 V0T      -0.096900
      3 C04        -22.9360    21.3380    -2.0530 c6         1 V0T       0.208800
      4 C08        -24.1190    20.8210     1.0490 ca         1 V0T      -0.306500
      5 C09        -24.3980    21.7850     2.0090 ca         1 V0T      -0.019000
      6 C10        -23.6510    21.8260     3.1760 ca         1 V0T      -0.120500
      7 C11        -22.6280    20.9080     3.3960 ca         1 V0T      -0.034300
      8 C12        -22.3740    19.9390     2.4280 ca         1 V0T      -0.120500
      9 C13        -23.1080    19.8890     1.2560 ca         1 V0T      -0.019000
     10 C14        -21.7720    20.9520     4.6310 c3         1 V0T       0.202900
     11 C16        -24.1770    23.2710    -1.1390 c6         1 V0T       0.208800
     12 C17        -24.0270    24.1010    -2.4120 c6         1 V0T      -0.096900
     13 N05        -24.1920    21.8500    -1.4820 n3         1 V0T      -0.717500
     14 O01        -23.9130    22.7740    -4.3930 oh         1 V0T      -0.645000
     15 O07        -24.9220    19.5030    -1.0660 o          1 V0T      -0.533500
     16 O15        -26.3180    21.4190    -0.2340 o          1 V0T      -0.533500
     17 S06        -25.0110    20.8310    -0.4810 sy         1 V0T       1.161600
     18 O1         -22.4150    21.6760     5.6450 oh         1 V0T      -0.654000
     19 H1         -22.5030    24.2140    -3.9330 h1         1 V0T       0.030700
     20 H2         -21.4510    22.0350    -3.4250 hc         1 V0T       0.055200
     21 H3         -21.5820    23.0300    -1.9950 hc         1 V0T       0.055200
     22 H4         -23.1730    20.5630    -2.7800 h1         1 V0T       0.052450
     23 H5         -22.2930    20.8910    -1.2870 h1         1 V0T       0.052450
     24 H6         -25.1950    22.5020     1.8610 ha         1 V0T       0.134000
     25 H7         -23.8770    22.5810     3.9160 ha         1 V0T       0.125000
     26 H8         -21.5930    19.2060     2.5940 ha         1 V0T       0.125000
     27 H9         -22.9010    19.1200     0.5230 ha         1 V0T       0.134000
     28 H10        -21.5480    19.9230     4.9410 h1         1 V0T       0.031200
     29 H11        -20.8100    21.4050     4.3570 h1         1 V0T       0.031200
     30 H12        -23.3640    23.4870    -0.4360 h1         1 V0T       0.052450
     31 H13        -25.1070    23.5380    -0.6410 h1         1 V0T       0.052450
     32 H14        -23.6310    25.0780    -2.1340 hc         1 V0T       0.055200
     33 H15        -25.0040    24.2740    -2.8680 hc         1 V0T       0.055200
     34 H16        -23.3340    22.3410    -5.0290 ho         1 V0T       0.439000
     35 H17        -21.7790    21.8450     6.3460 ho         1 V0T       0.450000
@<TRIPOS>BOND
     1     1     2 1   
     2     1    12 1   
     3     1    14 1   
     4     1    19 1   
     5     2     3 1   
     6     2    20 1   
     7     2    21 1   
     8     3    13 1   
     9     3    22 1   
    10     3    23 1   
    11     4     5 ar  
    12     4     9 ar  
    13     4    17 1   
    14     5     6 ar  
    15     5    24 1   
    16     6     7 ar  
    17     6    25 1   
    18     7     8 ar  
    19     7    10 1   
    20     8     9 ar  
    21     8    26 1   
    22     9    27 1   
    23    10    18 1   
    24    10    28 1   
    25    10    29 1   
    26    11    12 1   
    27    11    13 1   
    28    11    30 1   
    29    11    31 1   
    30    12    32 1   
    31    12    33 1   
    32    13    17 1   
    33    14    34 1   
    34    15    17 2   
    35    16    17 2   
    36    18    35 1   
@<TRIPOS>SUBSTRUCTURE
     1 V0T         1 TEMP              0 ****  ****    0 ROOT
