@<TRIPOS>MOLECULE
V0T
   35    36     1     0     0
SMALL
No Charge or Current Charge


@<TRIPOS>ATOM
      1 C02        -23.0120    23.4210    -3.4640 c6         1 V0T       0.186300
      2 C03        -22.4430    21.9880    -3.3650 c6         1 V0T      -0.096900
      3 C04        -23.3610    21.0260    -2.5610 c6         1 V0T       0.208800
      4 C08        -24.1630    20.9390     1.1060 ca         1 V0T      -0.306500
      5 C09        -24.7040    21.7680     2.1110 ca         1 V0T      -0.019000
      6 C10        -24.0050    21.9600     3.3150 ca         1 V0T      -0.120500
      7 C11        -22.7630    21.3310     3.5300 ca         1 V0T      -0.034300
      8 C12        -22.2280    20.5020     2.5250 ca         1 V0T      -0.120500
      9 C13        -22.9220    20.3040     1.3190 ca         1 V0T      -0.019000
     10 C14        -22.0050    21.5480     4.8350 c3         1 V0T       0.202900
     11 C16        -23.5560    22.9110    -0.9650 c6         1 V0T       0.208800
     12 C17        -23.3120    23.9960    -2.0510 c6         1 V0T      -0.096900
     13 N05        -24.2010    21.7090    -1.5380 n3         1 V0T      -0.717500
     14 O01        -24.1850    23.4440    -4.2880 oh         1 V0T      -0.645000
     15 O07        -24.7870    19.3150    -0.8830 o          1 V0T      -0.533500
     16 O15        -26.4110    21.2210    -0.3600 o          1 V0T      -0.533500
     17 S06        -25.0440    20.6940    -0.4510 sy         1 V0T       1.161600
     18 O1         -22.3820    20.5640     5.8070 oh         1 V0T      -0.654000
     19 H1         -22.2470    24.0600    -3.9300 h1         1 V0T       0.030700
     20 H2         -22.2470    21.5750    -4.3630 hc         1 V0T       0.055200
     21 H3         -21.4650    22.0380    -2.8660 hc         1 V0T       0.055200
     22 H4         -24.0160    20.4940    -3.2670 h1         1 V0T       0.052450
     23 H5         -22.7170    20.2660    -2.0940 h1         1 V0T       0.052450
     24 H6         -25.6610    22.2660     1.9640 ha         1 V0T       0.134000
     25 H7         -24.4300    22.6010     4.0840 ha         1 V0T       0.125000
     26 H8         -21.2720    20.0080     2.6800 ha         1 V0T       0.125000
     27 H9         -22.4910    19.6620     0.5520 ha         1 V0T       0.134000
     28 H10        -20.9260    21.4940     4.6380 h1         1 V0T       0.031200
     29 H11        -22.2180    22.5570     5.2120 h1         1 V0T       0.031200
     30 H12        -22.5970    22.6380    -0.5010 h1         1 V0T       0.052450
     31 H13        -24.1790    23.3590    -0.1770 h1         1 V0T       0.052450
     32 H14        -22.4740    24.6270    -1.7280 hc         1 V0T       0.055200
     33 H15        -24.1830    24.6620    -2.1020 hc         1 V0T       0.055200
     34 H16        -23.9130    23.1250    -5.1750 ho         1 V0T       0.439000
     35 H17        -21.8640    20.7560     6.6200 ho         1 V0T       0.450000
@<TRIPOS>BOND
     1     1     2 1   
     2     1    12 1   
     3     1    14 1   
     4     1    19 1   
     5     2     3 1   
     6     2    20 1   
     7     2    21 1   
     8     3    13 1   
     9     3    22 1   
    10     3    23 1   
    11     4     5 ar  
    12     4     9 ar  
    13     4    17 1   
    14     5     6 ar  
    15     5    24 1   
    16     6     7 ar  
    17     6    25 1   
    18     7     8 ar  
    19     7    10 1   
    20     8     9 ar  
    21     8    26 1   
    22     9    27 1   
    23    10    18 1   
    24    10    28 1   
    25    10    29 1   
    26    11    12 1   
    27    11    13 1   
    28    11    30 1   
    29    11    31 1   
    30    12    32 1   
    31    12    33 1   
    32    13    17 1   
    33    14    34 1   
    34    15    17 2   
    35    16    17 2   
    36    18    35 1   
@<TRIPOS>SUBSTRUCTURE
     1 V0T         1 TEMP              0 ****  ****    0 ROOT
