@<TRIPOS>MOLECULE
V0W
   38    39     1     0     0
SMALL
No Charge or Current Charge


@<TRIPOS>ATOM
      1 C01        -19.9820   -22.0670     3.9980 c3         1 V0W      -0.057800
      2 C02        -18.9060   -21.6520     3.0060 ca         1 V0W      -0.020300
      3 C03        -17.6440   -22.2740     3.0270 ca         1 V0W      -0.134000
      4 C04        -16.6480   -21.8970     2.1100 ca         1 V0W      -0.013000
      5 C05        -16.9120   -20.8920     1.1560 ca         1 V0W      -0.306500
      6 C09        -16.5470   -22.6260    -1.2600 c3         1 V0W       0.216800
      7 C10        -16.0680   -23.6030    -2.3730 c3         1 V0W       0.166800
      8 C12        -16.1790   -24.5350    -4.6440 c3         1 V0W       0.155100
      9 C13        -16.6690   -22.1500    -4.3150 c3         1 V0W       0.180800
     10 C14        -17.5770   -21.1390    -3.5910 c3         1 V0W      -0.079400
     11 C15        -16.9520   -20.4140    -2.3800 c3         1 V0W       0.210800
     12 C17        -18.1740   -20.2650     1.1360 ca         1 V0W      -0.013000
     13 C18        -19.1650   -20.6470     2.0560 ca         1 V0W      -0.134000
     14 N08        -16.1140   -21.2190    -1.4600 n3         1 V0W      -0.752500
     15 N11        -16.7070   -23.5070    -3.7190 n3         1 V0W      -0.727600
     16 O07        -14.3380   -20.9650     0.3450 o          1 V0W      -0.538000
     17 O16        -15.7950   -18.9710    -0.3000 o          1 V0W      -0.538000
     18 S06        -15.6420   -20.4070    -0.0320 sy         1 V0W       1.169600
     19 H1         -20.5930   -22.8820     3.5920 hc         1 V0W       0.049367
     20 H2         -19.5450   -22.4130     4.9420 hc         1 V0W       0.049367
     21 H3         -20.6520   -21.2310     4.2330 hc         1 V0W       0.049367
     22 H4         -17.4330   -23.0530     3.7560 ha         1 V0W       0.117000
     23 H5         -15.6780   -22.3900     2.1450 ha         1 V0W       0.133000
     24 H6         -17.6370   -22.6940    -1.1450 h1         1 V0W       0.055200
     25 H7         -16.1110   -23.0220    -0.3340 h1         1 V0W       0.055200
     26 H8         -16.2220   -24.6200    -1.9870 h1         1 V0W       0.043200
     27 H9         -14.9810   -23.4740    -2.4750 h1         1 V0W       0.043200
     28 H10        -16.2880   -25.5390    -4.2130 h1         1 V0W       0.031367
     29 H11        -16.7240   -24.5180    -5.5970 h1         1 V0W       0.031367
     30 H12        -15.1140   -24.3640    -4.8530 h1         1 V0W       0.031367
     31 H13        -15.6410   -21.7640    -4.3570 h1         1 V0W       0.036200
     32 H14        -17.0290   -22.2100    -5.3520 h1         1 V0W       0.036200
     33 H15        -17.8870   -20.3730    -4.3110 hc         1 V0W       0.052200
     34 H16        -18.4970   -21.6460    -3.2770 hc         1 V0W       0.052200
     35 H17        -16.3430   -19.5880    -2.7750 h1         1 V0W       0.050700
     36 H18        -17.7820   -19.9530    -1.8270 h1         1 V0W       0.050700
     37 H19        -18.3930   -19.4820     0.4120 ha         1 V0W       0.133000
     38 H20        -20.1360   -20.1600     2.0300 ha         1 V0W       0.117000
@<TRIPOS>BOND
     1     1     2 1   
     2     1    19 1   
     3     1    20 1   
     4     1    21 1   
     5     2     3 ar  
     6     2    13 ar  
     7     3     4 ar  
     8     3    22 1   
     9     4     5 ar  
    10     4    23 1   
    11     5    12 ar  
    12     5    18 1   
    13     6     7 1   
    14     6    14 1   
    15     6    24 1   
    16     6    25 1   
    17     7    15 1   
    18     7    26 1   
    19     7    27 1   
    20     8    15 1   
    21     8    28 1   
    22     8    29 1   
    23     8    30 1   
    24     9    10 1   
    25     9    15 1   
    26     9    31 1   
    27     9    32 1   
    28    10    11 1   
    29    10    33 1   
    30    10    34 1   
    31    11    14 1   
    32    11    35 1   
    33    11    36 1   
    34    12    13 ar  
    35    12    37 1   
    36    13    38 1   
    37    14    18 1   
    38    16    18 2   
    39    17    18 2   
@<TRIPOS>SUBSTRUCTURE
     1 V0W         1 TEMP              0 ****  ****    0 ROOT
