@<TRIPOS>MOLECULE
V0W
   38    39     1     0     0
SMALL
abcg2


@<TRIPOS>ATOM
      1 C01        -20.0010   -21.4320     4.1720 c3         1 V0W      -0.057800
      2 C02        -18.9240   -21.2610     3.1450 ca         1 V0W      -0.020300
      3 C03        -17.8920   -22.1910     3.0300 ca         1 V0W      -0.134000
      4 C04        -16.9120   -22.0620     2.0590 ca         1 V0W      -0.013000
      5 C05        -16.9590   -20.9820     1.1850 ca         1 V0W      -0.306500
      6 C09        -16.4780   -23.0630    -1.4390 c3         1 V0W       0.216800
      7 C10        -15.7110   -23.6220    -2.6260 c3         1 V0W       0.166800
      8 C12        -15.5920   -24.1030    -4.9460 c3         1 V0W       0.155100
      9 C13        -16.7780   -22.1420    -4.2530 c3         1 V0W       0.180800
     10 C14        -17.9300   -21.6080    -3.4070 c3         1 V0W      -0.079400
     11 C15        -17.5300   -20.8950    -2.1220 c3         1 V0W       0.210800
     12 C17        -17.9680   -20.0320     1.2900 ca         1 V0W      -0.013000
     13 C18        -18.9410   -20.1800     2.2650 ca         1 V0W      -0.134000
     14 N08        -16.4570   -21.6010    -1.4240 n3         1 V0W      -0.752500
     15 N11        -16.3890   -23.4980    -3.8990 n3         1 V0W      -0.727600
     16 O07        -14.5940   -21.6120     0.2440 o          1 V0W      -0.538000
     17 O16        -15.6410   -19.4420    -0.4620 o          1 V0W      -0.538000
     18 S06        -15.7770   -20.8510    -0.1270 sy         1 V0W       1.169600
     19 H1         -20.8310   -22.0120     3.7630 hc         1 V0W       0.049367
     20 H2         -19.6370   -21.9620     5.0510 hc         1 V0W       0.049367
     21 H3         -20.4040   -20.4720     4.4920 hc         1 V0W       0.049367
     22 H4         -17.8470   -23.0290     3.7140 ha         1 V0W       0.117000
     23 H5         -16.1180   -22.7930     1.9960 ha         1 V0W       0.133000
     24 H6         -17.5080   -23.4260    -1.4240 h1         1 V0W       0.055200
     25 H7         -16.0070   -23.4500    -0.5370 h1         1 V0W       0.055200
     26 H8         -15.5440   -24.6880    -2.4420 h1         1 V0W       0.043200
     27 H9         -14.7160   -23.1450    -2.6340 h1         1 V0W       0.043200
     28 H10        -15.3780   -25.1440    -4.6990 h1         1 V0W       0.031367
     29 H11        -16.1400   -24.0910    -5.8890 h1         1 V0W       0.031367
     30 H12        -14.6280   -23.5970    -5.1130 h1         1 V0W       0.031367
     31 H13        -15.9250   -21.4420    -4.2290 h1         1 V0W       0.036200
     32 H14        -17.1140   -22.1740    -5.2910 h1         1 V0W       0.036200
     33 H15        -18.4970   -20.8820    -3.9940 hc         1 V0W       0.052200
     34 H16        -18.6200   -22.4290    -3.2010 hc         1 V0W       0.052200
     35 H17        -17.1750   -19.8960    -2.3690 h1         1 V0W       0.050700
     36 H18        -18.4180   -20.7840    -1.4870 h1         1 V0W       0.050700
     37 H19        -18.0010   -19.1770     0.6280 ha         1 V0W       0.133000
     38 H20        -19.7250   -19.4370     2.3460 ha         1 V0W       0.117000
@<TRIPOS>BOND
     1     1     2 1   
     2     1    19 1   
     3     1    20 1   
     4     1    21 1   
     5     2     3 ar  
     6     2    13 ar  
     7     3     4 ar  
     8     3    22 1   
     9     4     5 ar  
    10     4    23 1   
    11     5    12 ar  
    12     5    18 1   
    13     6     7 1   
    14     6    14 1   
    15     6    24 1   
    16     6    25 1   
    17     7    15 1   
    18     7    26 1   
    19     7    27 1   
    20     8    15 1   
    21     8    28 1   
    22     8    29 1   
    23     8    30 1   
    24     9    10 1   
    25     9    15 1   
    26     9    31 1   
    27     9    32 1   
    28    10    11 1   
    29    10    33 1   
    30    10    34 1   
    31    11    14 1   
    32    11    35 1   
    33    11    36 1   
    34    12    13 ar  
    35    12    37 1   
    36    13    38 1   
    37    14    18 1   
    38    16    18 2   
    39    17    18 2   
@<TRIPOS>SUBSTRUCTURE
     1 V0W         1 TEMP              0 ****  ****    0 ROOT
