@<TRIPOS>MOLECULE
V0X
   19    20     1     0     0
SMALL
No Charge or Current Charge


@<TRIPOS>ATOM
      1 C7          22.5320     7.7170   -35.0490 c5         1 V0X       0.152600
      2 C1          18.0660     8.2650   -36.0780 ca         1 V0X      -0.073000
      3 C5          19.9790     9.1580   -37.3200 ca         1 V0X      -0.054000
      4 C6          22.3130     8.7560   -36.2280 c5         1 V0X       0.186800
      5 C4          20.8260     8.6550   -36.3170 ca         1 V0X      -0.173300
      6 C3          20.3120     7.9700   -35.2370 ca         1 V0X       0.140100
      7 C2          18.9340     7.7670   -35.0860 ca         1 V0X      -0.138000
      8 N           22.6730    10.1520   -35.9200 n8         1 V0X      -0.988200
      9 C           18.5890     8.9560   -37.1930 ca         1 V0X      -0.150000
     10 O           21.2530     7.5360   -34.3460 os         1 V0X      -0.331100
     11 H1          22.8270     6.7430   -35.4610 h1         1 V0X       0.062700
     12 H2          23.3080     8.0310   -34.3390 h1         1 V0X       0.062700
     13 H3          16.9920     8.1170   -35.9850 ha         1 V0X       0.113000
     14 H4          20.3860     9.6940   -38.1750 ha         1 V0X       0.110000
     15 H5          22.8080     8.4490   -37.1610 h1         1 V0X       0.040700
     16 H6          18.5470     7.2320   -34.2230 ha         1 V0X       0.130000
     17 H7          23.6930    10.2570   -35.9730 hn         1 V0X       0.397500
     18 H8          22.3280    10.7550   -36.6750 hn         1 V0X       0.397500
     19 H10         17.9160     9.3390   -37.9580 ha         1 V0X       0.115000
@<TRIPOS>BOND
     1     1     4 1   
     2     1    10 1   
     3     1    11 1   
     4     1    12 1   
     5     2     7 ar  
     6     2     9 ar  
     7     2    13 1   
     8     3     5 ar  
     9     3     9 ar  
    10     3    14 1   
    11     4     5 1   
    12     4     8 1   
    13     4    15 1   
    14     5     6 ar  
    15     6     7 ar  
    16     6    10 1   
    17     7    16 1   
    18     8    17 1   
    19     8    18 1   
    20     9    19 1   
@<TRIPOS>SUBSTRUCTURE
     1 V0X         1 TEMP              0 ****  ****    0 ROOT
