@<TRIPOS>MOLECULE
V0X
   19    20     1     0     0
SMALL
abcg2


@<TRIPOS>ATOM
      1 C7          22.5520     7.7490   -35.1040 c5         1 V0X       0.152600
      2 C1          18.0820     8.2870   -36.0630 ca         1 V0X      -0.073000
      3 C5          19.9440     9.1170   -37.3660 ca         1 V0X      -0.054000
      4 C6          22.3050     8.7450   -36.2500 c5         1 V0X       0.186800
      5 C4          20.8070     8.6360   -36.3980 ca         1 V0X      -0.173300
      6 C3          20.3030     7.9810   -35.2770 ca         1 V0X       0.140100
      7 C2          18.9440     7.7960   -35.0800 ca         1 V0X      -0.138000
      8 N           22.6770    10.1140   -35.8490 n8         1 V0X      -0.988200
      9 C           18.5690     8.9360   -37.1960 ca         1 V0X      -0.150000
     10 O           21.2770     7.5630   -34.4200 os         1 V0X      -0.331100
     11 H1          22.8660     6.7760   -35.4870 h1         1 V0X       0.062700
     12 H2          23.2730     8.1130   -34.3740 h1         1 V0X       0.062700
     13 H3          17.0140     8.1520   -35.9420 ha         1 V0X       0.113000
     14 H4          20.3270     9.6290   -38.2410 ha         1 V0X       0.110000
     15 H5          22.8300     8.4150   -37.1520 h1         1 V0X       0.040700
     16 H6          18.5690     7.2870   -34.2020 ha         1 V0X       0.130000
     17 H7          23.6900    10.1870   -35.8100 hn         1 V0X       0.397500
     18 H8          22.3740    10.7670   -36.5650 hn         1 V0X       0.397500
     19 H10         17.8790     9.2990   -37.9470 ha         1 V0X       0.115000
@<TRIPOS>BOND
     1     1     4 1   
     2     1    10 1   
     3     1    11 1   
     4     1    12 1   
     5     2     7 ar  
     6     2     9 ar  
     7     2    13 1   
     8     3     5 ar  
     9     3     9 ar  
    10     3    14 1   
    11     4     5 1   
    12     4     8 1   
    13     4    15 1   
    14     5     6 ar  
    15     6     7 ar  
    16     6    10 1   
    17     7    16 1   
    18     8    17 1   
    19     8    18 1   
    20     9    19 1   
@<TRIPOS>SUBSTRUCTURE
     1 V0X         1 TEMP              0 ****  ****    0 ROOT
