@<TRIPOS>MOLECULE
V0Y
   56    59     1     0     0
SMALL
No Charge or Current Charge


@<TRIPOS>ATOM
      1 N15        -69.7220   -31.8930   -38.7370 n1         1 V0Y      -0.434000
      2 C14        -69.1270   -32.7180   -38.1620 cg         1 V0Y       0.326000
      3 C10        -68.3810   -33.7240   -37.4610 ca         1 V0Y      -0.052000
      4 C11        -69.0420   -34.7160   -36.7120 ca         1 V0Y       0.208000
      5 F13        -70.3940   -34.7360   -36.6340 f          1 V0Y      -0.157000
      6 C12        -68.3080   -35.6980   -36.0290 ca         1 V0Y      -0.130000
      7 C9         -66.9740   -33.7190   -37.5100 ca         1 V0Y      -0.056000
      8 C8         -66.2400   -34.7050   -36.8260 ca         1 V0Y      -0.098000
      9 C7         -66.8980   -35.7200   -36.1010 ca         1 V0Y      -0.004800
     10 C6         -66.1180   -36.7270   -35.3660 cc         1 V0Y       0.276400
     11 C5         -66.4480   -38.0740   -35.4780 cd         1 V0Y      -0.224400
     12 C16        -67.3850   -38.5930   -36.5140 ca         1 V0Y      -0.004800
     13 C17        -68.3060   -39.6150   -36.2020 ca         1 V0Y      -0.119000
     14 C18        -69.2020   -40.1100   -37.1640 ca         1 V0Y       0.151000
     15 F22        -70.0620   -41.0800   -36.7760 f          1 V0Y      -0.169000
     16 C19        -69.1900   -39.5890   -38.4880 ca         1 V0Y       0.068100
     17 O23        -70.0260   -39.9990   -39.5180 os         1 V0Y      -0.348100
     18 C24        -71.0320   -41.0190   -39.3800 c3         1 V0Y       0.147900
     19 C20        -68.2650   -38.5800   -38.8020 ca         1 V0Y      -0.106000
     20 C21        -67.3730   -38.0900   -37.8330 ca         1 V0Y      -0.104000
     21 C4         -65.6780   -39.0600   -34.6750 c          1 V0Y       0.567200
     22 O25        -65.8540   -40.2690   -34.7570 o          1 V0Y      -0.531000
     23 N1         -65.1450   -36.2620   -34.5180 nc         1 V0Y      -0.710300
     24 C2         -64.5130   -37.1670   -33.8030 cd         1 V0Y       0.722800
     25 N3         -64.7060   -38.5280   -33.8290 n          1 V0Y      -0.327300
     26 C26        -63.8640   -39.4590   -33.0240 c3         1 V0Y       0.074300
     27 N27        -63.5920   -36.6500   -32.8990 nh         1 V0Y      -0.745600
     28 C28        -63.9830   -36.5420   -31.4710 c6         1 V0Y       0.214300
     29 C29        -62.7310   -36.5890   -30.5650 c6         1 V0Y      -0.103400
     30 C30        -61.7290   -35.4820   -30.9680 c6         1 V0Y       0.157500
     31 N33        -60.5080   -35.5580   -30.1410 n8         1 V0Y      -0.984200
     32 C31        -61.3760   -35.6010   -32.4690 c6         1 V0Y      -0.103400
     33 C32        -62.6570   -35.5790   -33.3350 c6         1 V0Y       0.214300
     34 H1         -68.8380   -36.4450   -35.4450 ha         1 V0Y       0.149000
     35 H2         -66.4460   -32.9530   -38.0750 ha         1 V0Y       0.131000
     36 H3         -65.1530   -34.6880   -36.8680 ha         1 V0Y       0.134000
     37 H4         -68.3550   -40.0170   -35.1940 ha         1 V0Y       0.138000
     38 H5         -71.5580   -41.1610   -40.3330 h1         1 V0Y       0.038700
     39 H6         -70.5820   -41.9790   -39.0990 h1         1 V0Y       0.038700
     40 H7         -71.7760   -40.7350   -38.6250 h1         1 V0Y       0.038700
     41 H8         -68.2330   -38.1780   -39.8110 ha         1 V0Y       0.128000
     42 H9         -66.6510   -37.3330   -38.1270 ha         1 V0Y       0.120000
     43 H10        -62.8520   -39.0560   -32.8950 h1         1 V0Y       0.060033
     44 H11        -64.3200   -39.6070   -32.0370 h1         1 V0Y       0.060033
     45 H12        -63.7660   -40.4330   -33.5190 h1         1 V0Y       0.060033
     46 H13        -64.5230   -35.5990   -31.3010 h1         1 V0Y       0.054200
     47 H14        -64.6650   -37.3580   -31.1900 h1         1 V0Y       0.054200
     48 H15        -63.0350   -36.4660   -29.5170 hc         1 V0Y       0.055450
     49 H16        -62.2620   -37.5780   -30.6480 hc         1 V0Y       0.055450
     50 H17        -62.1940   -34.4990   -30.7910 h1         1 V0Y       0.061700
     51 H18        -60.7770   -35.5330   -29.1510 hn         1 V0Y       0.394500
     52 H19        -60.0940   -36.4900   -30.2530 hn         1 V0Y       0.394500
     53 H21        -60.8280   -36.5340   -32.6580 hc         1 V0Y       0.055450
     54 H22        -60.7150   -34.7780   -32.7700 hc         1 V0Y       0.055450
     55 H23        -62.3780   -35.7160   -34.3900 h1         1 V0Y       0.054200
     56 H24        -63.1410   -34.5950   -33.2490 h1         1 V0Y       0.054200
@<TRIPOS>BOND
     1     1     2 3   
     2     2     3 1   
     3     3     4 ar  
     4     3     7 ar  
     5     4     5 1   
     6     4     6 ar  
     7     6     9 ar  
     8     6    34 1   
     9     7     8 ar  
    10     7    35 1   
    11     8     9 ar  
    12     8    36 1   
    13     9    10 1   
    14    10    11 2   
    15    10    23 1   
    16    11    12 1   
    17    11    21 1   
    18    12    13 ar  
    19    12    20 ar  
    20    13    14 ar  
    21    13    37 1   
    22    14    15 1   
    23    14    16 ar  
    24    16    17 1   
    25    16    19 ar  
    26    17    18 1   
    27    18    38 1   
    28    18    39 1   
    29    18    40 1   
    30    19    20 ar  
    31    19    41 1   
    32    20    42 1   
    33    21    22 2   
    34    21    25 1   
    35    23    24 2   
    36    24    25 1   
    37    24    27 1   
    38    25    26 1   
    39    26    43 1   
    40    26    44 1   
    41    26    45 1   
    42    27    28 1   
    43    27    33 1   
    44    28    29 1   
    45    28    46 1   
    46    28    47 1   
    47    29    30 1   
    48    29    48 1   
    49    29    49 1   
    50    30    31 1   
    51    30    32 1   
    52    30    50 1   
    53    31    51 1   
    54    31    52 1   
    55    32    33 1   
    56    32    53 1   
    57    32    54 1   
    58    33    55 1   
    59    33    56 1   
@<TRIPOS>SUBSTRUCTURE
     1 V0Y         1 TEMP              0 ****  ****    0 ROOT
