@<TRIPOS>MOLECULE
V0Y
   56    59     1     0     0
SMALL
abcg2


@<TRIPOS>ATOM
      1 N15        -69.0330   -31.7360   -39.0930 n1         1 V0Y      -0.434000
      2 C14        -68.5650   -32.5700   -38.4510 cg         1 V0Y       0.326000
      3 C10        -67.9770   -33.5980   -37.6630 ca         1 V0Y      -0.052000
      4 C11        -68.7860   -34.5220   -37.0140 ca         1 V0Y       0.208000
      5 F13        -70.1070   -34.4030   -37.1410 f          1 V0Y      -0.157000
      6 C12        -68.2630   -35.5400   -36.2510 ca         1 V0Y      -0.130000
      7 C9         -66.5930   -33.6990   -37.5190 ca         1 V0Y      -0.056000
      8 C8         -66.0530   -34.7060   -36.7430 ca         1 V0Y      -0.098000
      9 C7         -66.8800   -35.6420   -36.1220 ca         1 V0Y      -0.004800
     10 C6         -66.2630   -36.7120   -35.3020 cc         1 V0Y       0.276400
     11 C5         -66.6490   -38.0210   -35.3800 cd         1 V0Y      -0.224400
     12 C16        -67.6630   -38.5380   -36.3180 ca         1 V0Y      -0.004800
     13 C17        -68.7940   -39.1990   -35.8420 ca         1 V0Y      -0.119000
     14 C18        -69.7350   -39.6620   -36.7340 ca         1 V0Y       0.151000
     15 F22        -70.8270   -40.2880   -36.2700 f          1 V0Y      -0.169000
     16 C19        -69.5990   -39.4950   -38.1090 ca         1 V0Y       0.068100
     17 O23        -70.5620   -39.9370   -38.9560 os         1 V0Y      -0.348100
     18 C24        -70.3980   -41.2870   -39.3790 c3         1 V0Y       0.147900
     19 C20        -68.4630   -38.8500   -38.5760 ca         1 V0Y      -0.106000
     20 C21        -67.5060   -38.3760   -37.6920 ca         1 V0Y      -0.104000
     21 C4         -65.9470   -38.9830   -34.5650 c          1 V0Y       0.567200
     22 O25        -66.1820   -40.1810   -34.5480 o          1 V0Y      -0.531000
     23 N1         -65.3060   -36.2690   -34.4610 nc         1 V0Y      -0.710300
     24 C2         -64.6610   -37.1300   -33.7250 cd         1 V0Y       0.722800
     25 N3         -64.8870   -38.4740   -33.8100 n          1 V0Y      -0.327300
     26 C26        -63.9680   -39.4610   -33.2510 c3         1 V0Y       0.074300
     27 N27        -63.7010   -36.6900   -32.8640 nh         1 V0Y      -0.745600
     28 C28        -63.8000   -37.0270   -31.4410 c6         1 V0Y       0.214300
     29 C29        -62.4300   -36.9710   -30.7890 c6         1 V0Y      -0.103400
     30 C30        -61.7760   -35.6020   -30.9810 c6         1 V0Y       0.157500
     31 N33        -60.4320   -35.4910   -30.4390 n8         1 V0Y      -0.984200
     32 C31        -61.7730   -35.2520   -32.4630 c6         1 V0Y      -0.103400
     33 C32        -63.1610   -35.3530   -33.0790 c6         1 V0Y       0.214300
     34 H1         -68.9290   -36.2320   -35.7550 ha         1 V0Y       0.149000
     35 H2         -65.9500   -32.9850   -38.0150 ha         1 V0Y       0.131000
     36 H3         -64.9810   -34.7750   -36.6270 ha         1 V0Y       0.134000
     37 H4         -68.9550   -39.3350   -34.7800 ha         1 V0Y       0.138000
     38 H5         -71.2070   -41.5040   -40.0740 h1         1 V0Y       0.038700
     39 H6         -69.4440   -41.4310   -39.8910 h1         1 V0Y       0.038700
     40 H7         -70.4570   -41.9850   -38.5410 h1         1 V0Y       0.038700
     41 H8         -68.3350   -38.7130   -39.6430 ha         1 V0Y       0.128000
     42 H9         -66.6260   -37.8790   -38.0790 ha         1 V0Y       0.120000
     43 H10        -63.0200   -38.9820   -33.0320 h1         1 V0Y       0.060033
     44 H11        -64.3650   -39.9160   -32.3460 h1         1 V0Y       0.060033
     45 H12        -63.8040   -40.2440   -33.9850 h1         1 V0Y       0.060033
     46 H13        -64.4740   -36.3090   -30.9560 h1         1 V0Y       0.054200
     47 H14        -64.2460   -38.0080   -31.3010 h1         1 V0Y       0.054200
     48 H15        -62.5360   -37.1940   -29.7240 hc         1 V0Y       0.055450
     49 H16        -61.7870   -37.7460   -31.2210 hc         1 V0Y       0.055450
     50 H17        -62.3970   -34.8600   -30.4620 h1         1 V0Y       0.061700
     51 H18        -60.4490   -35.6960   -29.4470 hn         1 V0Y       0.394500
     52 H19        -59.8450   -36.2080   -30.8530 hn         1 V0Y       0.394500
     53 H21        -61.0930   -35.9260   -32.9950 hc         1 V0Y       0.055450
     54 H22        -61.3990   -34.2360   -32.6070 hc         1 V0Y       0.055450
     55 H23        -63.1100   -35.1570   -34.1480 h1         1 V0Y       0.054200
     56 H24        -63.8220   -34.5940   -32.6410 h1         1 V0Y       0.054200
@<TRIPOS>BOND
     1     1     2 3   
     2     2     3 1   
     3     3     4 ar  
     4     3     7 ar  
     5     4     5 1   
     6     4     6 ar  
     7     6     9 ar  
     8     6    34 1   
     9     7     8 ar  
    10     7    35 1   
    11     8     9 ar  
    12     8    36 1   
    13     9    10 1   
    14    10    11 2   
    15    10    23 1   
    16    11    12 1   
    17    11    21 1   
    18    12    13 ar  
    19    12    20 ar  
    20    13    14 ar  
    21    13    37 1   
    22    14    15 1   
    23    14    16 ar  
    24    16    17 1   
    25    16    19 ar  
    26    17    18 1   
    27    18    38 1   
    28    18    39 1   
    29    18    40 1   
    30    19    20 ar  
    31    19    41 1   
    32    20    42 1   
    33    21    22 2   
    34    21    25 1   
    35    23    24 2   
    36    24    25 1   
    37    24    27 1   
    38    25    26 1   
    39    26    43 1   
    40    26    44 1   
    41    26    45 1   
    42    27    28 1   
    43    27    33 1   
    44    28    29 1   
    45    28    46 1   
    46    28    47 1   
    47    29    30 1   
    48    29    48 1   
    49    29    49 1   
    50    30    31 1   
    51    30    32 1   
    52    30    50 1   
    53    31    51 1   
    54    31    52 1   
    55    32    33 1   
    56    32    53 1   
    57    32    54 1   
    58    33    55 1   
    59    33    56 1   
@<TRIPOS>SUBSTRUCTURE
     1 V0Y         1 TEMP              0 ****  ****    0 ROOT
