@<TRIPOS>MOLECULE
V0Z
   34    36     1     0     0
SMALL
abcg2


@<TRIPOS>ATOM
      1 N1         -24.2860    10.4900     7.4810 na         1 V0Z      -0.083800
      2 N3         -24.1850     9.6150     8.5300 ns         1 V0Z      -0.388200
      3 C4         -24.5090    12.5730     5.8830 cc         1 V0Z       0.437900
      4 C5         -23.6880    11.6970     9.2900 cc         1 V0Z      -0.399200
      5 C6         -23.7120    10.3230     9.6710 c          1 V0Z       0.555200
      6 C7         -24.7890    11.2880     5.3690 cc         1 V0Z      -0.335600
      7 C8         -25.1180    11.0980     3.9250 c          1 V0Z       0.637700
      8 C10        -25.7300    11.6520     0.9810 ca         1 V0Z      -0.098500
      9 C13        -28.0200    13.1770     0.5810 ca         1 V0Z      -0.150000
     10 C11        -26.2100    11.8730    -0.3030 ca         1 V0Z      -0.150000
     11 C12        -27.5470    12.9530     1.8630 ca         1 V0Z      -0.098500
     12 C14        -27.3630    12.6340    -0.5310 ca         1 V0Z       0.267000
     13 C2         -24.6800    10.2000     6.2300 cd         1 V0Z       0.094700
     14 C3         -24.0260    11.7840     7.9580 cd         1 V0Z       0.491500
     15 C9         -26.3990    12.1870     2.0830 ca         1 V0Z      -0.077000
     16 N2         -24.1450    12.8310     7.1220 nd         1 V0Z      -0.681000
     17 N4         -25.9590    12.0340     3.4170 ns         1 V0Z      -0.137000
     18 O1         -23.4280     9.7390    10.7170 o          1 V0Z      -0.522000
     19 O2         -24.6380    10.1730     3.2690 o          1 V0Z      -0.593100
     20 H6         -23.8670     8.6760     8.3250 hn         1 V0Z       0.330500
     21 H4         -24.5750    13.4290     5.2190 h4         1 V0Z       0.034100
     22 H5         -23.4240    12.5200     9.9300 ha         1 V0Z       0.244000
     23 H8         -24.8370    11.0660     1.1250 ha         1 V0Z       0.126000
     24 H11        -28.9120    13.7750     0.4350 ha         1 V0Z       0.116000
     25 H2         -25.6480     8.3740     6.6900 hc         1 V0Z       0.081700
     26 H3         -25.4410     8.6830     4.9460 hc         1 V0Z       0.081700
     27 H1         -24.0640     8.1860     5.9340 hc         1 V0Z       0.081700
     28 H9         -25.6780    11.4500    -1.1470 ha         1 V0Z       0.116000
     29 H10        -28.0710    13.3840     2.7080 ha         1 V0Z       0.126000
     30 H7         -26.3960    12.6540     4.0820 hn         1 V0Z       0.152000
     31 H12        -28.4600    13.6120    -1.9400 hn         1 V0Z       0.445500
     32 H13        -27.1990    12.7050    -2.5590 hn         1 V0Z       0.445500
     33 C1         -24.9830     8.7780     5.9230 c3         1 V0Z      -0.081800
     34 N5         -27.8740    12.7990    -1.8150 nv         1 V0Z      -1.068000
@<TRIPOS>BOND
     1     1     2 1   
     2     1    13 1   
     3     1    14 1   
     4     2     5 1   
     5     2    20 1   
     6     3     6 1   
     7     3    16 2   
     8     3    21 1   
     9     4     5 1   
    10     4    14 2   
    11     4    22 1   
    12     5    18 2   
    13     6     7 1   
    14     6    13 2   
    15     7    17 1   
    16     7    19 2   
    17     8    10 ar  
    18     8    15 ar  
    19     8    23 1   
    20     9    11 ar  
    21     9    12 ar  
    22     9    24 1   
    23    10    12 ar  
    24    10    28 1   
    25    11    15 ar  
    26    11    29 1   
    27    12    34 1   
    28    13    33 1   
    29    14    16 1   
    30    15    17 1   
    31    17    30 1   
    32    25    33 1   
    33    26    33 1   
    34    27    33 1   
    35    31    34 1   
    36    32    34 1   
@<TRIPOS>SUBSTRUCTURE
     1 V0Z         1 TEMP              0 ****  ****    0 ROOT
