@<TRIPOS>MOLECULE
V0Z
   34    36     1     0     0
SMALL
No Charge or Current Charge


@<TRIPOS>ATOM
      1 N1         -24.1890    10.4270     7.5480 na         1 V0Z      -0.083800
      2 N3         -23.7680     9.6330     8.6200 ns         1 V0Z      -0.388200
      3 C4         -25.1950    12.4210     6.0250 cc         1 V0Z       0.437900
      4 C5         -24.1640    11.7560     9.2660 cc         1 V0Z      -0.399200
      5 C6         -23.6880    10.4530     9.7170 c          1 V0Z       0.555200
      6 C7         -25.0580    11.0860     5.4670 cc         1 V0Z      -0.335600
      7 C8         -25.4480    10.8680     4.0350 c          1 V0Z       0.637700
      8 C10        -26.1530    11.2970     0.9830 ca         1 V0Z      -0.098500
      9 C13        -27.4840    13.7110     0.4540 ca         1 V0Z      -0.150000
     10 C11        -26.6020    11.5900    -0.3180 ca         1 V0Z      -0.150000
     11 C12        -27.0380    13.4240     1.7560 ca         1 V0Z      -0.098500
     12 C14        -27.2690    12.7940    -0.5850 ca         1 V0Z       0.267000
     13 C2         -24.5770    10.0260     6.2620 cd         1 V0Z       0.094700
     14 C3         -24.4570    11.7150     7.9380 cd         1 V0Z       0.491500
     15 C9         -26.3750    12.2130     2.0370 ca         1 V0Z      -0.077000
     16 N2         -24.9360    12.8010     7.2680 nd         1 V0Z      -0.681000
     17 N4         -25.9450    11.9930     3.3780 ns         1 V0Z      -0.137000
     18 O1         -23.2660    10.1480    10.8190 o          1 V0Z      -0.522000
     19 O2         -25.3520     9.7850     3.4730 o          1 V0Z      -0.593100
     20 H6         -23.0870     8.8890     8.5070 hn         1 V0Z       0.330500
     21 H4         -25.5580    13.2560     5.4440 h4         1 V0Z       0.034100
     22 H5         -24.2320    12.6080     9.9250 ha         1 V0Z       0.244000
     23 H8         -25.6280    10.3600     1.1450 ha         1 V0Z       0.126000
     24 H11        -27.9980    14.6480     0.2570 ha         1 V0Z       0.116000
     25 H2         -24.0770     7.9360     6.6930 hc         1 V0Z       0.081700
     26 H3         -25.3630     8.1490     5.5180 hc         1 V0Z       0.081700
     27 H1         -23.6770     8.4630     5.0620 hc         1 V0Z       0.081700
     28 H9         -26.4260    10.8770    -1.1180 ha         1 V0Z       0.116000
     29 H10        -27.2130    14.1470     2.5500 ha         1 V0Z       0.126000
     30 H7         -26.0140    12.8180     3.9560 hn         1 V0Z       0.152000
     31 H12        -28.0710    13.9990    -2.0740 hn         1 V0Z       0.445500
     32 H13        -27.4370    12.4730    -2.6310 hn         1 V0Z       0.445500
     33 C1         -24.4130     8.5710     5.8660 c3         1 V0Z      -0.081800
     34 N5         -27.7030    13.0750    -1.8530 nv         1 V0Z      -1.068000
@<TRIPOS>BOND
     1     1     2 1   
     2     1    13 1   
     3     1    14 1   
     4     2     5 1   
     5     2    20 1   
     6     3     6 1   
     7     3    16 2   
     8     3    21 1   
     9     4     5 1   
    10     4    14 2   
    11     4    22 1   
    12     5    18 2   
    13     6     7 1   
    14     6    13 2   
    15     7    17 1   
    16     7    19 2   
    17     8    10 ar  
    18     8    15 ar  
    19     8    23 1   
    20     9    11 ar  
    21     9    12 ar  
    22     9    24 1   
    23    10    12 ar  
    24    10    28 1   
    25    11    15 ar  
    26    11    29 1   
    27    12    34 1   
    28    13    33 1   
    29    14    16 1   
    30    15    17 1   
    31    17    30 1   
    32    25    33 1   
    33    26    33 1   
    34    27    33 1   
    35    31    34 1   
    36    32    34 1   
@<TRIPOS>SUBSTRUCTURE
     1 V0Z         1 TEMP              0 ****  ****    0 ROOT
