@<TRIPOS>MOLECULE
V11
   51    54     1     0     0
SMALL
abcg2


@<TRIPOS>ATOM
      1 O2           3.8890    -2.1610    -0.7130 o          1 V11      -0.496000
      2 C1           3.7160    -1.0880    -0.1830 c          1 V11       0.608700
      3 C2           4.7720    -0.0470    -0.0800 ca         1 V11      -0.143600
      4 C7           4.5460     1.1840     0.5350 ca         1 V11      -0.056000
      5 C6           5.5650     2.1220     0.6080 ca         1 V11      -0.128000
      6 C5           6.8140     1.8390     0.0700 ca         1 V11      -0.081000
      7 C4           7.0430     0.6150    -0.5450 ca         1 V11      -0.128000
      8 C3           6.0270    -0.3240    -0.6210 ca         1 V11      -0.056000
      9 O1           2.5790    -0.7090     0.3720 os         1 V11      -0.451100
     10 C8           1.4470    -1.6070     0.3470 c6         1 V11       0.186300
     11 C12          0.7410    -1.5630    -1.0080 c6         1 V11      -0.077400
     12 C11         -0.2440    -0.4040    -1.1370 c5         1 V11       0.167000
     13 C13          0.3950     0.9820    -0.9170 c5         1 V11      -0.100400
     14 C14          0.2530     1.2120     0.6010 c5         1 V11      -0.100400
     15 C10         -0.4450    -0.0700     1.1020 c5         1 V11       0.167000
     16 C9           0.5210    -1.1880     1.4850 c6         1 V11      -0.077400
     17 N           -1.2210    -0.5340    -0.0530 n3         1 V11      -0.733600
     18 C15         -2.4620     0.1910    -0.2600 c3         1 V11       0.118800
     19 C16         -3.5610    -0.4600     0.5950 c3         1 V11       0.222600
     20 O3          -3.4870    -1.8520     0.4500 oh         1 V11      -0.663000
     21 C17         -4.9120     0.0590     0.1780 ca         1 V11      -0.091300
     22 C22         -5.6650    -0.5820    -0.8020 ca         1 V11      -0.095000
     23 C21         -6.8830    -0.0530    -1.2100 ca         1 V11      -0.114500
     24 C20         -7.3630     1.1230    -0.6470 ca         1 V11      -0.108000
     25 C19         -6.6160     1.7680     0.3310 ca         1 V11      -0.114500
     26 C18         -5.4020     1.2340     0.7410 ca         1 V11      -0.095000
     27 H7           3.5800     1.4200     0.9600 ha         1 V11       0.131500
     28 H3           6.2110    -1.2760    -1.1000 ha         1 V11       0.131500
     29 H6           5.3830     3.0740     1.0880 ha         1 V11       0.118000
     30 H5           7.6080     2.5720     0.1300 ha         1 V11       0.115000
     31 H4           8.0140     0.3910    -0.9670 ha         1 V11       0.118000
     32 H8           1.8160    -2.6170     0.5360 h1         1 V11       0.066700
     33 H121         1.4660    -1.5440    -1.8230 hc         1 V11       0.062700
     34 H122         0.1790    -2.4950    -1.1150 hc         1 V11       0.062700
     35 H91C        -0.0690    -2.0610     1.7740 hc         1 V11       0.062700
     36 H92C         1.1110    -0.9080     2.3610 hc         1 V11       0.062700
     37 H11         -0.7480    -0.4790    -2.1030 h1         1 V11       0.065700
     38 H131         1.4260     1.0320    -1.2670 hc         1 V11       0.050700
     39 H132        -0.1620     1.7390    -1.4720 hc         1 V11       0.050700
     40 H141         1.2020     1.3950     1.1020 hc         1 V11       0.050700
     41 H142        -0.3760     2.0810     0.8000 hc         1 V11       0.050700
     42 H10         -1.1040     0.1260     1.9500 h1         1 V11       0.065700
     43 H151        -2.4020     1.2640    -0.0300 h1         1 V11       0.049700
     44 H152        -2.7380     0.1030    -1.3140 h1         1 V11       0.049700
     45 H16         -3.3970    -0.1730     1.6460 h1         1 V11       0.035700
     46 HA          -2.5450    -2.0150     0.2620 ho         1 V11       0.472000
     47 H22         -5.3070    -1.4990    -1.2500 ha         1 V11       0.116500
     48 H18         -4.8280     1.7370     1.5120 ha         1 V11       0.116500
     49 H21         -7.4610    -0.5640    -1.9690 ha         1 V11       0.111500
     50 H20         -8.3130     1.5310    -0.9660 ha         1 V11       0.111000
     51 H19         -6.9810     2.6830     0.7790 ha         1 V11       0.111500
@<TRIPOS>BOND
     1     1     2 2   
     2     2     3 1   
     3     2     9 1   
     4     3     4 ar  
     5     3     8 ar  
     6     4     5 ar  
     7     4    27 1   
     8     5     6 ar  
     9     5    29 1   
    10     6     7 ar  
    11     6    30 1   
    12     7     8 ar  
    13     7    31 1   
    14     8    28 1   
    15     9    10 1   
    16    10    11 1   
    17    10    16 1   
    18    10    32 1   
    19    11    12 1   
    20    11    33 1   
    21    11    34 1   
    22    12    13 1   
    23    12    17 1   
    24    12    37 1   
    25    13    14 1   
    26    13    38 1   
    27    13    39 1   
    28    14    15 1   
    29    14    40 1   
    30    14    41 1   
    31    15    16 1   
    32    15    17 1   
    33    15    42 1   
    34    16    35 1   
    35    16    36 1   
    36    17    18 1   
    37    18    19 1   
    38    18    43 1   
    39    18    44 1   
    40    19    20 1   
    41    19    21 1   
    42    19    45 1   
    43    20    46 1   
    44    21    22 ar  
    45    21    26 ar  
    46    22    23 ar  
    47    22    47 1   
    48    23    24 ar  
    49    23    49 1   
    50    24    25 ar  
    51    24    50 1   
    52    25    26 ar  
    53    25    51 1   
    54    26    48 1   
@<TRIPOS>SUBSTRUCTURE
     1 V11         1 TEMP              0 ****  ****    0 ROOT
