@<TRIPOS>MOLECULE
V11
   51    54     1     0     0
SMALL
No Charge or Current Charge


@<TRIPOS>ATOM
      1 O2           3.9400    -2.2020    -0.8850 o          1 V11      -0.496000
      2 C1           3.7930    -1.1640    -0.2530 c          1 V11       0.608700
      3 C2           4.8720    -0.1100    -0.1420 ca         1 V11      -0.143600
      4 C7           4.6680     1.0790     0.5970 ca         1 V11      -0.056000
      5 C6           5.6840     2.0470     0.6840 ca         1 V11      -0.128000
      6 C5           6.9130     1.8420     0.0360 ca         1 V11      -0.081000
      7 C4           7.1260     0.6660    -0.7000 ca         1 V11      -0.128000
      8 C3           6.1130    -0.3040    -0.7900 ca         1 V11      -0.056000
      9 O1           2.6440    -0.8500     0.4270 os         1 V11      -0.451100
     10 C8           1.4800    -1.7030     0.3730 c6         1 V11       0.186300
     11 C12          0.7700    -1.6400    -1.0050 c6         1 V11      -0.077400
     12 C11         -0.1890    -0.4240    -1.1470 c5         1 V11       0.167000
     13 C13          0.4460     0.9740    -0.8600 c5         1 V11      -0.100400
     14 C14          0.2680     1.1620     0.6860 c5         1 V11      -0.100400
     15 C10         -0.4470    -0.1470     1.1460 c5         1 V11       0.167000
     16 C9           0.4930    -1.3350     1.5060 c6         1 V11      -0.077400
     17 N           -1.2160    -0.5240    -0.0760 n3         1 V11      -0.733600
     18 C15         -2.4660     0.2680    -0.3310 c3         1 V11       0.118800
     19 C16         -3.5860    -0.0390     0.6970 c3         1 V11       0.222600
     20 O3          -3.4510    -1.4220     1.0160 oh         1 V11      -0.663000
     21 C17         -4.9920     0.2830     0.1890 ca         1 V11      -0.091300
     22 C22         -5.5410    -0.4090    -0.9120 ca         1 V11      -0.095000
     23 C21         -6.8320    -0.0990    -1.3760 ca         1 V11      -0.114500
     24 C20         -7.5850     0.9040    -0.7430 ca         1 V11      -0.108000
     25 C19         -7.0470     1.5960     0.3540 ca         1 V11      -0.114500
     26 C18         -5.7560     1.2870     0.8180 ca         1 V11      -0.095000
     27 H7           3.7260     1.2620     1.1080 ha         1 V11       0.131500
     28 H3           6.2970    -1.2090    -1.3660 ha         1 V11       0.131500
     29 H6           5.5170     2.9580     1.2550 ha         1 V11       0.118000
     30 H5           7.6980     2.5930     0.1040 ha         1 V11       0.115000
     31 H4           8.0770     0.5060    -1.2030 ha         1 V11       0.118000
     32 H8           1.8220    -2.7340     0.5490 h1         1 V11       0.066700
     33 H121         1.5030    -1.6240    -1.8210 hc         1 V11       0.062700
     34 H122         0.1870    -2.5590    -1.1470 hc         1 V11       0.062700
     35 H91C        -0.1250    -2.2110     1.7410 hc         1 V11       0.062700
     36 H92C         1.0500    -1.1020     2.4220 hc         1 V11       0.062700
     37 H11         -0.6330    -0.4620    -2.1520 h1         1 V11       0.065700
     38 H131         1.4950     1.0240    -1.1730 hc         1 V11       0.050700
     39 H132        -0.0800     1.7620    -1.4090 hc         1 V11       0.050700
     40 H141         1.2190     1.3170     1.2060 hc         1 V11       0.050700
     41 H142        -0.3500     2.0410     0.9020 hc         1 V11       0.050700
     42 H10         -1.0950     0.0390     2.0130 h1         1 V11       0.065700
     43 H151        -2.2730     1.3490    -0.3300 h1         1 V11       0.049700
     44 H152        -2.8440     0.0200    -1.3310 h1         1 V11       0.049700
     45 H16         -3.3850     0.5570     1.5970 h1         1 V11       0.035700
     46 HA          -2.5200    -1.5800     0.7090 ho         1 V11       0.472000
     47 H22         -4.9680    -1.1900    -1.4070 ha         1 V11       0.116500
     48 H18         -5.3490     1.8320     1.6680 ha         1 V11       0.116500
     49 H21         -7.2480    -0.6370    -2.2250 ha         1 V11       0.111500
     50 H20         -8.5840     1.1430    -1.1020 ha         1 V11       0.111000
     51 H19         -7.6290     2.3730     0.8450 ha         1 V11       0.111500
@<TRIPOS>BOND
     1     1     2 2   
     2     2     3 1   
     3     2     9 1   
     4     3     4 ar  
     5     3     8 ar  
     6     4     5 ar  
     7     4    27 1   
     8     5     6 ar  
     9     5    29 1   
    10     6     7 ar  
    11     6    30 1   
    12     7     8 ar  
    13     7    31 1   
    14     8    28 1   
    15     9    10 1   
    16    10    11 1   
    17    10    16 1   
    18    10    32 1   
    19    11    12 1   
    20    11    33 1   
    21    11    34 1   
    22    12    13 1   
    23    12    17 1   
    24    12    37 1   
    25    13    14 1   
    26    13    38 1   
    27    13    39 1   
    28    14    15 1   
    29    14    40 1   
    30    14    41 1   
    31    15    16 1   
    32    15    17 1   
    33    15    42 1   
    34    16    35 1   
    35    16    36 1   
    36    17    18 1   
    37    18    19 1   
    38    18    43 1   
    39    18    44 1   
    40    19    20 1   
    41    19    21 1   
    42    19    45 1   
    43    20    46 1   
    44    21    22 ar  
    45    21    26 ar  
    46    22    23 ar  
    47    22    47 1   
    48    23    24 ar  
    49    23    49 1   
    50    24    25 ar  
    51    24    50 1   
    52    25    26 ar  
    53    25    51 1   
    54    26    48 1   
@<TRIPOS>SUBSTRUCTURE
     1 V11         1 TEMP              0 ****  ****    0 ROOT
