@<TRIPOS>MOLECULE
V12
   49    52     1     0     0
SMALL
No Charge or Current Charge


@<TRIPOS>ATOM
      1 OAC          3.6100     1.2660     1.4480 o          1 V12      -0.569000
      2 CAV          4.4010     1.3040     0.5210 c          1 V12       0.721400
      3 NAO          5.4140     2.2250     0.5690 nc         1 V12      -0.777100
      4 CAT          6.2960     2.2730    -0.3690 cd         1 V12       0.788500
      5 NAA          7.2280     3.1910    -0.2130 nv         1 V12      -1.033200
      6 CAF          6.3270     1.4120    -1.4810 cd         1 V12      -0.483600
      7 CAG          5.3280     0.4730    -1.5750 cc         1 V12       0.031600
      8 NBD          4.3510     0.4220    -0.5840 n          1 V12      -0.323000
      9 CBC          3.2410    -0.5600    -0.7370 c5         1 V12       0.328700
     10 OAS          1.9510    -0.0450    -0.3440 os         1 V12      -0.451000
     11 CBA          3.5550    -1.8120     0.1720 c5         1 V12       0.111300
     12 OAE          3.4680    -3.0600    -0.5310 oh         1 V12      -0.724000
     13 CAZ          2.3760    -1.7590     1.1950 c5         1 V12       0.100300
     14 OAD          2.0610    -3.0840     1.6760 oh         1 V12      -0.711000
     15 CB0          1.2580    -1.1250     0.3100 c5         1 V12       0.150300
     16 CAN          0.0300    -0.5820     1.0830 c3         1 V12       0.102000
     17 NAQ         -0.9580     0.1180     0.2450 ns         1 V12      -0.499900
     18 CAU         -1.7760    -0.4980    -0.6750 c          1 V12       0.593100
     19 OAB         -1.7760    -1.7090    -0.8370 o          1 V12      -0.581100
     20 CAL         -2.6770     0.4290    -1.4660 c3         1 V12      -0.185700
     21 CA0         -4.0920     0.3300    -1.0040 cc         1 V12       0.432800
     22 NAR         -5.1110    -0.1380    -1.7520 nd         1 V12      -0.567100
     23 CAY         -6.2200    -0.0180    -0.9190 ca         1 V12       0.071400
     24 CAK         -7.5520    -0.3660    -1.1930 ca         1 V12      -0.047000
     25 CAI         -8.5200    -0.1530    -0.1860 ca         1 V12      -0.137000
     26 CAH         -8.1470     0.3990     1.0640 ca         1 V12      -0.093000
     27 CAJ         -6.8020     0.7410     1.3150 ca         1 V12      -0.116000
     28 CAX         -5.8760     0.5130     0.2910 ca         1 V12      -0.073200
     29 NAP         -4.5360     0.7430     0.2500 na         1 V12      -0.307600
     30 HAA1         7.2690     3.5550     0.7290 hn         1 V12       0.503000
     31 HAA2         8.1190     2.9930    -0.6460 hn         1 V12       0.503000
     32 HAF          7.1020     1.4950    -2.2340 ha         1 V12       0.205000
     33 HAG          5.2050    -0.2610    -2.3700 h4         1 V12       0.205000
     34 HBC          3.2100    -0.8570    -1.7920 h2         1 V12       0.076700
     35 HBA          4.5250    -1.7190     0.6820 h1         1 V12       0.078700
     36 HB0          0.9120    -1.8370    -0.4530 h1         1 V12       0.083700
     37 HAE          2.9290    -3.6080     0.1000 ho         1 V12       0.531000
     38 HAZ          2.6290    -1.0880     2.0290 h1         1 V12       0.087700
     39 HAD          1.6410    -2.9910     2.5660 ho         1 V12       0.517000
     40 HAN1        -0.4690    -1.4200     1.5880 h1         1 V12       0.075700
     41 HAN2         0.3810     0.1110     1.8590 h1         1 V12       0.075700
     42 HAQ         -0.9940     1.1300     0.2920 hn         1 V12       0.320500
     43 HAL1        -2.3470     1.4680    -1.3570 hc         1 V12       0.082700
     44 HAL2        -2.6280     0.1410    -2.5210 hc         1 V12       0.082700
     45 HAP         -3.9660     1.1440     0.9820 hn         1 V12       0.355000
     46 HAK         -7.8280    -0.7880    -2.1560 ha         1 V12       0.127000
     47 HAI         -9.5590    -0.4140    -0.3740 ha         1 V12       0.112000
     48 HAH         -8.9000     0.5600     1.8320 ha         1 V12       0.110000
     49 HAJ         -6.4980     1.1660     2.2690 ha         1 V12       0.115000
@<TRIPOS>BOND
     1     1     2 2   
     2     2     3 1   
     3     2     8 1   
     4     3     4 2   
     5     4     5 1   
     6     4     6 1   
     7     5    30 1   
     8     5    31 1   
     9     6     7 2   
    10     6    32 1   
    11     7     8 1   
    12     7    33 1   
    13     8     9 1   
    14     9    10 1   
    15     9    11 1   
    16     9    34 1   
    17    10    15 1   
    18    11    12 1   
    19    11    13 1   
    20    11    35 1   
    21    12    37 1   
    22    13    14 1   
    23    13    15 1   
    24    13    38 1   
    25    14    39 1   
    26    15    16 1   
    27    15    36 1   
    28    16    17 1   
    29    16    40 1   
    30    16    41 1   
    31    17    18 1   
    32    17    42 1   
    33    18    19 2   
    34    18    20 1   
    35    20    21 1   
    36    20    43 1   
    37    20    44 1   
    38    21    22 2   
    39    21    29 1   
    40    22    23 1   
    41    23    24 ar  
    42    23    28 ar  
    43    24    25 ar  
    44    24    46 1   
    45    25    26 ar  
    46    25    47 1   
    47    26    27 ar  
    48    26    48 1   
    49    27    28 ar  
    50    27    49 1   
    51    28    29 1   
    52    29    45 1   
@<TRIPOS>SUBSTRUCTURE
     1 V12         1 TEMP              0 ****  ****    0 ROOT
