@<TRIPOS>MOLECULE
V12
   49    52     1     0     0
SMALL
abcg2


@<TRIPOS>ATOM
      1 OAC          3.9390     0.5350     1.5410 o          1 V12      -0.569000
      2 CAV          4.5590     0.8530     0.5350 c          1 V12       0.721400
      3 NAO          5.4780     1.8380     0.5310 nc         1 V12      -0.777100
      4 CAT          6.1460     2.1440    -0.5640 cd         1 V12       0.788500
      5 NAA          7.0440     3.1250    -0.5030 nv         1 V12      -1.033200
      6 CAF          5.9300     1.4600    -1.8000 cd         1 V12      -0.483600
      7 CAG          4.9970     0.4890    -1.7900 cc         1 V12       0.031600
      8 NBD          4.3130     0.1650    -0.6640 n          1 V12      -0.323000
      9 CBC          3.2970    -0.8730    -0.7310 c5         1 V12       0.328700
     10 OAS          2.0350    -0.3170    -0.4910 os         1 V12      -0.451000
     11 CBA          3.4790    -2.0670     0.2230 c5         1 V12       0.111300
     12 OAE          3.3470    -3.2440    -0.5330 oh         1 V12      -0.724000
     13 CAZ          2.3040    -1.9260     1.2100 c5         1 V12       0.100300
     14 OAD          1.7350    -3.1640     1.5600 oh         1 V12      -0.711000
     15 CB0          1.2880    -1.1030     0.4190 c5         1 V12       0.150300
     16 CAN          0.4540    -0.1940     1.3030 c3         1 V12       0.102000
     17 NAQ         -0.5290     0.5730     0.5760 ns         1 V12      -0.499900
     18 CAU         -1.7500     0.1070     0.2760 c          1 V12       0.593100
     19 OAB         -2.1700    -0.9790     0.6410 o          1 V12      -0.581100
     20 CAL         -2.5850     1.0430    -0.5870 c3         1 V12      -0.185700
     21 CA0         -4.0280     0.6990    -0.5380 cc         1 V12       0.432800
     22 NAR         -4.6980     0.1260    -1.4990 nd         1 V12      -0.567100
     23 CAY         -5.9820    -0.0010    -1.0200 ca         1 V12       0.071400
     24 CAK         -7.1180    -0.5400    -1.6220 ca         1 V12      -0.047000
     25 CAI         -8.2990    -0.5340    -0.9010 ca         1 V12      -0.137000
     26 CAH         -8.3600    -0.0020     0.3960 ca         1 V12      -0.093000
     27 CAJ         -7.2440     0.5380     1.0110 ca         1 V12      -0.116000
     28 CAX         -6.0620     0.5260     0.2800 ca         1 V12      -0.073200
     29 NAP         -4.7940     0.9660     0.5510 na         1 V12      -0.307600
     30 HAA1         7.2000     3.6150     0.3620 hn         1 V12       0.503000
     31 HAA2         7.5930     3.3880    -1.3020 hn         1 V12       0.503000
     32 HAF          6.4730     1.7060    -2.7000 ha         1 V12       0.205000
     33 HAG          4.7530    -0.0760    -2.6790 h4         1 V12       0.205000
     34 HBC          3.3520    -1.2550    -1.7540 h2         1 V12       0.076700
     35 HBA          4.4500    -2.0390     0.7300 h1         1 V12       0.078700
     36 HB0          0.6270    -1.7860    -0.1330 h1         1 V12       0.083700
     37 HAE          2.7930    -3.8470    -0.0180 ho         1 V12       0.531000
     38 HAZ          2.6330    -1.3800     2.0940 h1         1 V12       0.087700
     39 HAD          2.1860    -3.5020     2.3410 ho         1 V12       0.517000
     40 HAN1        -0.0470    -0.8030     2.0570 h1         1 V12       0.075700
     41 HAN2         1.1120     0.5010     1.8250 h1         1 V12       0.075700
     42 HAQ         -0.2470     1.4650     0.2060 hn         1 V12       0.320500
     43 HAL1        -2.4260     2.0830    -0.2930 hc         1 V12       0.082700
     44 HAL2        -2.2430     0.9500    -1.6200 hc         1 V12       0.082700
     45 HAP         -4.4820     1.4040     1.4030 hn         1 V12       0.355000
     46 HAK         -7.0740    -0.9510    -2.6230 ha         1 V12       0.127000
     47 HAI         -9.1970    -0.9450    -1.3440 ha         1 V12       0.112000
     48 HAH         -9.3030    -0.0110     0.9270 ha         1 V12       0.110000
     49 HAJ         -7.2940     0.9510     2.0100 ha         1 V12       0.115000
@<TRIPOS>BOND
     1     1     2 2   
     2     2     3 1   
     3     2     8 1   
     4     3     4 2   
     5     4     5 1   
     6     4     6 1   
     7     5    30 1   
     8     5    31 1   
     9     6     7 2   
    10     6    32 1   
    11     7     8 1   
    12     7    33 1   
    13     8     9 1   
    14     9    10 1   
    15     9    11 1   
    16     9    34 1   
    17    10    15 1   
    18    11    12 1   
    19    11    13 1   
    20    11    35 1   
    21    12    37 1   
    22    13    14 1   
    23    13    15 1   
    24    13    38 1   
    25    14    39 1   
    26    15    16 1   
    27    15    36 1   
    28    16    17 1   
    29    16    40 1   
    30    16    41 1   
    31    17    18 1   
    32    17    42 1   
    33    18    19 2   
    34    18    20 1   
    35    20    21 1   
    36    20    43 1   
    37    20    44 1   
    38    21    22 2   
    39    21    29 1   
    40    22    23 1   
    41    23    24 ar  
    42    23    28 ar  
    43    24    25 ar  
    44    24    46 1   
    45    25    26 ar  
    46    25    47 1   
    47    26    27 ar  
    48    26    48 1   
    49    27    28 ar  
    50    27    49 1   
    51    28    29 1   
    52    29    45 1   
@<TRIPOS>SUBSTRUCTURE
     1 V12         1 TEMP              0 ****  ****    0 ROOT
