@<TRIPOS>MOLECULE
V14
   51    52     1     0     0
SMALL
No Charge or Current Charge


@<TRIPOS>ATOM
      1 F20         14.6360     4.7680    14.3600 f          1 V14      -0.142000
      2 C5          15.9740     4.8900    14.5400 ca         1 V14       0.206000
      3 C4          16.6410     3.9630    15.3700 ca         1 V14      -0.282500
      4 S7          15.7000     2.6790    16.2040 sy         1 V14       1.191600
      5 O9          14.4180     3.1970    16.6740 o          1 V14      -0.519000
      6 N10         15.2710     1.6880    14.9840 n8         1 V14      -1.021100
      7 O8          16.5370     1.8350    17.0520 o          1 V14      -0.519000
      8 C3          18.0390     4.0730    15.5090 ca         1 V14       0.139000
      9 F12         18.7350     3.2140    16.2870 f          1 V14      -0.159000
     10 C2          18.7470     5.0830    14.8300 ca         1 V14       0.225000
     11 F13         20.0900     5.1330    14.9930 f          1 V14      -0.153000
     12 C6          16.6800     5.9360    13.8660 ca         1 V14       0.391000
     13 C1          18.0880     6.0160    14.0010 ca         1 V14      -0.302500
     14 S11         19.1110     7.2300    13.1380 sy         1 V14       1.081500
     15 O16         20.0220     7.8360    14.1170 o          1 V14      -0.526500
     16 O17         18.2770     8.0860    12.2830 o          1 V14      -0.526500
     17 C15         20.1510     6.2640    12.0270 c3         1 V14      -0.300400
     18 C18         19.3610     5.4840    10.9670 c3         1 V14       0.185600
     19 O21         18.8330     4.2950    11.5540 oh         1 V14      -0.677000
     20 N19         15.9860     6.8810    13.0830 nu         1 V14      -0.932200
     21 C14         14.7580     7.6070    13.4490 c3         1 V14       0.224500
     22 C28         14.8880     8.2450    14.8610 c3         1 V14      -0.091900
     23 C27         15.9950     9.3070    15.0920 c3         1 V14      -0.066400
     24 C26         15.9150    10.6190    14.2730 c3         1 V14      -0.073400
     25 C25         14.5130    11.2780    14.1890 c3         1 V14      -0.071400
     26 C24         13.7310    11.0330    12.8710 c3         1 V14      -0.073400
     27 C23         13.2640     9.5860    12.5630 c3         1 V14      -0.066400
     28 C22         14.3980     8.5640    12.2840 c3         1 V14      -0.091900
     29 H1          14.2670     1.6380    15.1430 hn         1 V14       0.492500
     30 H2          15.5910     0.7980    15.3580 hn         1 V14       0.492500
     31 H3          20.7680     5.5900    12.6280 h1         1 V14       0.116700
     32 H4          20.8050     6.9890    11.5320 h1         1 V14       0.116700
     33 H5          20.0460     5.2200    10.1490 h1         1 V14       0.045700
     34 H6          18.5630     6.1070    10.5390 h1         1 V14       0.045700
     35 H7          18.4180     3.7760    10.8280 ho         1 V14       0.459000
     36 H8          16.6090     7.4310    12.4860 hn         1 V14       0.503000
     37 H9          13.9230     6.8960    13.5150 h1         1 V14       0.073700
     38 H10         13.9200     8.6660    15.1520 hc         1 V14       0.051950
     39 H11         15.0540     7.4370    15.5830 hc         1 V14       0.051950
     40 H12         16.9780     8.8500    14.9300 hc         1 V14       0.039450
     41 H13         15.9680     9.5770    16.1550 hc         1 V14       0.039450
     42 H14         16.3280    10.4690    13.2700 hc         1 V14       0.040950
     43 H15         16.5960    11.3340    14.7490 hc         1 V14       0.040950
     44 H16         14.6530    12.3620    14.2790 hc         1 V14       0.037700
     45 H17         13.9000    10.9920    15.0520 hc         1 V14       0.037700
     46 H18         14.3350    11.3960    12.0300 hc         1 V14       0.040950
     47 H19         12.8390    11.6710    12.8930 hc         1 V14       0.040950
     48 H20         12.6390     9.6380    11.6630 hc         1 V14       0.039450
     49 H21         12.5990     9.2230    13.3570 hc         1 V14       0.039450
     50 H22         14.0800     7.9340    11.4440 hc         1 V14       0.051950
     51 H23         15.2880     9.0870    11.9180 hc         1 V14       0.051950
@<TRIPOS>BOND
     1     1     2 1   
     2     2     3 ar  
     3     2    12 ar  
     4     3     4 1   
     5     3     8 ar  
     6     4     5 2   
     7     4     6 1   
     8     4     7 2   
     9     6    29 1   
    10     6    30 1   
    11     8     9 1   
    12     8    10 ar  
    13    10    11 1   
    14    10    13 ar  
    15    12    13 ar  
    16    12    20 1   
    17    13    14 1   
    18    14    15 2   
    19    14    16 2   
    20    14    17 1   
    21    17    18 1   
    22    17    31 1   
    23    17    32 1   
    24    18    19 1   
    25    18    33 1   
    26    18    34 1   
    27    19    35 1   
    28    20    21 1   
    29    20    36 1   
    30    21    22 1   
    31    21    28 1   
    32    21    37 1   
    33    22    23 1   
    34    22    38 1   
    35    22    39 1   
    36    23    24 1   
    37    23    40 1   
    38    23    41 1   
    39    24    25 1   
    40    24    42 1   
    41    24    43 1   
    42    25    26 1   
    43    25    44 1   
    44    25    45 1   
    45    26    27 1   
    46    26    46 1   
    47    26    47 1   
    48    27    28 1   
    49    27    48 1   
    50    27    49 1   
    51    28    50 1   
    52    28    51 1   
@<TRIPOS>SUBSTRUCTURE
     1 V14         1 TEMP              0 ****  ****    0 ROOT
