@<TRIPOS>MOLECULE
V14
   51    52     1     0     0
SMALL
abcg2


@<TRIPOS>ATOM
      1 F20         14.4630     5.0250    14.3030 f          1 V14      -0.142000
      2 C5          15.7900     4.9970    14.4930 ca         1 V14       0.206000
      3 C4          16.3400     4.0250    15.3090 ca         1 V14      -0.282500
      4 S7          15.3740     2.8360    16.2550 sy         1 V14       1.191600
      5 O9          13.9910     2.9740    15.9000 o          1 V14      -0.519000
      6 N10         15.8500     1.3610    15.7740 n8         1 V14      -1.021100
      7 O8          15.7870     2.9980    17.6230 o          1 V14      -0.519000
      8 C3          17.7290     3.9670    15.4160 ca         1 V14       0.139000
      9 F12         18.3250     3.0210    16.1620 f          1 V14      -0.159000
     10 C2          18.5110     4.8660    14.7350 ca         1 V14       0.225000
     11 F13         19.8420     4.7530    14.8640 f          1 V14      -0.153000
     12 C6          16.5500     5.9680    13.7980 ca         1 V14       0.391000
     13 C1          17.9580     5.8700    13.9400 ca         1 V14      -0.302500
     14 S11         19.1230     7.0210    13.2080 sy         1 V14       1.081500
     15 O16         19.9500     7.5370    14.2770 o          1 V14      -0.526500
     16 O17         18.3950     7.9820    12.3990 o          1 V14      -0.526500
     17 C15         20.1660     6.0660    12.1030 c3         1 V14      -0.300400
     18 C18         19.4720     5.6140    10.8370 c3         1 V14       0.185600
     19 O21         18.4910     4.6410    11.1780 oh         1 V14      -0.677000
     20 N19         15.9380     6.8970    13.0060 nu         1 V14      -0.932200
     21 C14         14.7080     7.6410    13.3670 c3         1 V14       0.224500
     22 C28         14.7650     8.2100    14.7890 c3         1 V14      -0.091900
     23 C27         15.9010     9.1720    15.1360 c3         1 V14      -0.066400
     24 C26         15.9430    10.5100    14.3830 c3         1 V14      -0.073400
     25 C25         14.5900    11.2380    14.2620 c3         1 V14      -0.071400
     26 C24         13.8650    11.0850    12.9190 c3         1 V14      -0.073400
     27 C23         13.3710     9.6930    12.5070 c3         1 V14      -0.066400
     28 C22         14.4720     8.6520    12.2370 c3         1 V14      -0.091900
     29 H1          16.8050     1.1230    16.0180 hn         1 V14       0.492500
     30 H2          15.6080     1.1360    14.8140 hn         1 V14       0.492500
     31 H3          20.5730     5.2340    12.6750 h1         1 V14       0.116700
     32 H4          20.9720     6.7660    11.8730 h1         1 V14       0.116700
     33 H5          20.2360     5.1910    10.1770 h1         1 V14       0.045700
     34 H6          19.0200     6.4710    10.3310 h1         1 V14       0.045700
     35 H7          17.9720     4.4400    10.3890 ho         1 V14       0.459000
     36 H8          16.6060     7.4920    12.5350 hn         1 V14       0.503000
     37 H9          13.8670     6.9490    13.3450 h1         1 V14       0.073700
     38 H10         13.8030     8.6830    14.9950 hc         1 V14       0.051950
     39 H11         14.8190     7.3660    15.4820 hc         1 V14       0.051950
     40 H12         16.8630     8.6670    15.0150 hc         1 V14       0.039450
     41 H13         15.8130     9.3870    16.2050 hc         1 V14       0.039450
     42 H14         16.3700    10.3710    13.3890 hc         1 V14       0.040950
     43 H15         16.6470    11.1540    14.9160 hc         1 V14       0.040950
     44 H16         14.7570    12.3080    14.4090 hc         1 V14       0.037700
     45 H17         13.9280    10.9280    15.0780 hc         1 V14       0.037700
     46 H18         14.5270    11.4590    12.1290 hc         1 V14       0.040950
     47 H19         12.9990    11.7550    12.9290 hc         1 V14       0.040950
     48 H20         12.7890     9.8200    11.5910 hc         1 V14       0.039450
     49 H21         12.6670     9.3110    13.2520 hc         1 V14       0.039450
     50 H22         14.2180     8.0720    11.3470 hc         1 V14       0.051950
     51 H23         15.4060     9.1670    12.0010 hc         1 V14       0.051950
@<TRIPOS>BOND
     1     1     2 1   
     2     2     3 ar  
     3     2    12 ar  
     4     3     4 1   
     5     3     8 ar  
     6     4     5 2   
     7     4     6 1   
     8     4     7 2   
     9     6    29 1   
    10     6    30 1   
    11     8     9 1   
    12     8    10 ar  
    13    10    11 1   
    14    10    13 ar  
    15    12    13 ar  
    16    12    20 1   
    17    13    14 1   
    18    14    15 2   
    19    14    16 2   
    20    14    17 1   
    21    17    18 1   
    22    17    31 1   
    23    17    32 1   
    24    18    19 1   
    25    18    33 1   
    26    18    34 1   
    27    19    35 1   
    28    20    21 1   
    29    20    36 1   
    30    21    22 1   
    31    21    28 1   
    32    21    37 1   
    33    22    23 1   
    34    22    38 1   
    35    22    39 1   
    36    23    24 1   
    37    23    40 1   
    38    23    41 1   
    39    24    25 1   
    40    24    42 1   
    41    24    43 1   
    42    25    26 1   
    43    25    44 1   
    44    25    45 1   
    45    26    27 1   
    46    26    46 1   
    47    26    47 1   
    48    27    28 1   
    49    27    48 1   
    50    27    49 1   
    51    28    50 1   
    52    28    51 1   
@<TRIPOS>SUBSTRUCTURE
     1 V14         1 TEMP              0 ****  ****    0 ROOT
