@<TRIPOS>MOLECULE
V15
   29    30     1     0     0
SMALL
No Charge or Current Charge


@<TRIPOS>ATOM
      1 N1          -3.9330    -0.0290     0.0800 ns         1 V15      -0.442400
      2 C2          -3.1840    -1.1270    -0.0600 cc         1 V15       0.738800
      3 C3          -3.4250     1.2070    -0.0110 c          1 V15       0.582200
      4 C4          -2.0000     1.1920    -0.2660 cc         1 V15      -0.420200
      5 C5          -1.2500     0.0430    -0.4050 cd         1 V15       0.234400
      6 N6          -1.9000    -1.1900    -0.2940 nd         1 V15      -0.734300
      7 C8           3.2690     1.1760     0.3250 ca         1 V15      -0.106500
      8 C9           4.6500     1.1990     0.0600 ca         1 V15      -0.110000
      9 C10          5.3380     0.0010    -0.1970 ca         1 V15      -0.111000
     10 C11          4.6440    -1.2200    -0.1900 ca         1 V15      -0.110000
     11 C12          3.2630    -1.2440     0.0750 ca         1 V15      -0.106500
     12 N14         -3.8100    -2.2820     0.0560 nv         1 V15      -1.063200
     13 C15          0.2350     0.0450    -0.6730 c3         1 V15      -0.031200
     14 C7           2.5690    -0.0470     0.3360 ca         1 V15      -0.082300
     15 C16          1.0720    -0.0720     0.6170 c3         1 V15      -0.026100
     16 O15         -4.1010     2.2140     0.1090 o          1 V15      -0.554000
     17 H1          -4.9230    -0.1120     0.2310 hn         1 V15       0.320500
     18 H141        -4.5860    -2.3060     0.7040 hn         1 V15       0.508500
     19 H142        -3.1770    -3.0690     0.1240 hn         1 V15       0.508500
     20 H4          -1.5430     2.1700    -0.3450 ha         1 V15       0.214000
     21 H151         0.4950    -0.7820    -1.3450 hc         1 V15       0.061200
     22 H152         0.5160     0.9650    -1.1990 hc         1 V15       0.061200
     23 H9           5.1860     2.1460     0.0540 ha         1 V15       0.111000
     24 H10          6.4060     0.0200    -0.4020 ha         1 V15       0.111000
     25 H11          5.1750    -2.1480    -0.3910 ha         1 V15       0.111000
     26 H12          2.7330    -2.1940     0.0760 ha         1 V15       0.111500
     27 H161         0.8010     0.7470     1.2950 hc         1 V15       0.055200
     28 H162         0.8010    -0.9990     1.1370 hc         1 V15       0.055200
     29 H8           2.7440     2.1080     0.5210 ha         1 V15       0.111500
@<TRIPOS>BOND
     1     1     2 1   
     2     1     3 1   
     3     1    17 1   
     4     2     6 2   
     5     2    12 1   
     6     3     4 1   
     7     3    16 2   
     8     4     5 2   
     9     4    20 1   
    10     5     6 1   
    11     5    13 1   
    12     7     8 ar  
    13     7    14 ar  
    14     7    29 1   
    15     8     9 ar  
    16     8    23 1   
    17     9    10 ar  
    18     9    24 1   
    19    10    11 ar  
    20    10    25 1   
    21    11    14 ar  
    22    11    26 1   
    23    12    18 1   
    24    12    19 1   
    25    13    15 1   
    26    13    21 1   
    27    13    22 1   
    28    14    15 1   
    29    15    27 1   
    30    15    28 1   
@<TRIPOS>SUBSTRUCTURE
     1 V15         1 TEMP              0 ****  ****    0 ROOT
