@<TRIPOS>MOLECULE
V15
   29    30     1     0     0
SMALL
abcg2


@<TRIPOS>ATOM
      1 N1          -3.8370    -0.0550     0.0900 ns         1 V15      -0.442400
      2 C2          -3.0310    -1.1460     0.1080 cc         1 V15       0.738800
      3 C3          -3.3900     1.2330    -0.1900 c          1 V15       0.582200
      4 C4          -1.9880     1.2920    -0.4580 cc         1 V15      -0.420200
      5 C5          -1.2400     0.1490    -0.4170 cd         1 V15       0.234400
      6 N6          -1.7440    -1.0720    -0.1360 nd         1 V15      -0.734300
      7 C8           3.2410     1.1060     0.4440 ca         1 V15      -0.106500
      8 C9           4.6010     1.1290     0.1630 ca         1 V15      -0.110000
      9 C10          5.2560    -0.0390    -0.2080 ca         1 V15      -0.111000
     10 C11          4.5410    -1.2260    -0.2960 ca         1 V15      -0.110000
     11 C12          3.1820    -1.2440    -0.0150 ca         1 V15      -0.106500
     12 N14         -3.5940    -2.3270     0.3700 nv         1 V15      -1.063200
     13 C15          0.2380     0.1850    -0.6640 c3         1 V15      -0.031200
     14 C7           2.5140    -0.0800     0.3590 ca         1 V15      -0.082300
     15 C16          1.0330    -0.0960     0.6190 c3         1 V15      -0.026100
     16 O15         -4.1850     2.1640    -0.1860 o          1 V15      -0.554000
     17 H1          -4.8250    -0.1640     0.2820 hn         1 V15       0.320500
     18 H141        -4.5630    -2.4200     0.6170 hn         1 V15       0.508500
     19 H142        -3.0080    -3.1410     0.4370 hn         1 V15       0.508500
     20 H4          -1.5420     2.2480    -0.6920 ha         1 V15       0.214000
     21 H151         0.4890    -0.5690    -1.4150 hc         1 V15       0.061200
     22 H152         0.5260     1.1570    -1.0680 hc         1 V15       0.061200
     23 H9           5.1500     2.0580     0.2370 ha         1 V15       0.111000
     24 H10          6.3160    -0.0230    -0.4230 ha         1 V15       0.111000
     25 H11          5.0430    -2.1420    -0.5810 ha         1 V15       0.111000
     26 H12          2.6310    -2.1750    -0.0820 ha         1 V15       0.111500
     27 H161         0.7780     0.6550     1.3700 hc         1 V15       0.055200
     28 H162         0.7350    -1.0670     1.0200 hc         1 V15       0.055200
     29 H8           2.7390     2.0210     0.7370 ha         1 V15       0.111500
@<TRIPOS>BOND
     1     1     2 1   
     2     1     3 1   
     3     1    17 1   
     4     2     6 2   
     5     2    12 1   
     6     3     4 1   
     7     3    16 2   
     8     4     5 2   
     9     4    20 1   
    10     5     6 1   
    11     5    13 1   
    12     7     8 ar  
    13     7    14 ar  
    14     7    29 1   
    15     8     9 ar  
    16     8    23 1   
    17     9    10 ar  
    18     9    24 1   
    19    10    11 ar  
    20    10    25 1   
    21    11    14 ar  
    22    11    26 1   
    23    12    18 1   
    24    12    19 1   
    25    13    15 1   
    26    13    21 1   
    27    13    22 1   
    28    14    15 1   
    29    15    27 1   
    30    15    28 1   
@<TRIPOS>SUBSTRUCTURE
     1 V15         1 TEMP              0 ****  ****    0 ROOT
