@<TRIPOS>MOLECULE
V16
   33    33     1     0     0
SMALL
bcc


@<TRIPOS>ATOM
      1 N            2.6820     0.0070    -0.1860 nu         1 V16      -0.741600
      2 C           -6.0400    -0.4410    -1.3540 c3         1 V16      -0.088100
      3 O            5.1600     0.0800    -0.9900 oh         1 V16      -0.405500
      4 C1          -5.2330    -0.2110    -0.0840 c3         1 V16      -0.076400
      5 C10          1.3630     2.5040     0.1520 c3         1 V16      -0.047800
      6 C11         -0.7230     1.1610     0.5470 ca         1 V16      -0.092000
      7 C2          -3.7300    -0.2340    -0.3280 c3         1 V16      -0.075400
      8 C3          -2.9150    -0.0220     0.9490 c3         1 V16      -0.026100
      9 C4          -1.4340    -0.0270     0.6890 ca         1 V16      -0.103300
     10 C5          -0.7340    -1.2180     0.5290 ca         1 V16      -0.095000
     11 C6           0.6190    -1.2200     0.2280 ca         1 V16      -0.177000
     12 C7           1.3190    -0.0200     0.1060 ca         1 V16       0.171600
     13 C8           3.5530    -1.0100     0.0440 c2         1 V16       0.603100
     14 C9           0.6380     1.1950     0.2690 ca         1 V16      -0.122300
     15 N1           4.7820    -1.0580    -0.2960 n2         1 V16      -0.518200
     16 H1          -5.8250     0.3250    -2.1010 hc         1 V16       0.032033
     17 H2          -5.8080    -1.4100    -1.8010 hc         1 V16       0.032033
     18 H3          -7.1120    -0.4180    -1.1570 hc         1 V16       0.032033
     19 H4           6.0910    -0.0620    -1.1800 ho         1 V16       0.428000
     20 H5          -5.5130     0.7510     0.3570 hc         1 V16       0.036700
     21 H6          -5.4910    -0.9720     0.6600 hc         1 V16       0.036700
     22 H7           1.7390     2.6780    -0.8600 hc         1 V16       0.043367
     23 H8           0.7050     3.3360     0.3960 hc         1 V16       0.043367
     24 H9           2.2220     2.5510     0.8250 hc         1 V16       0.043367
     25 H10         -1.2460     2.1030     0.6740 ha         1 V16       0.129000
     26 H11         -3.4480    -1.1910    -0.7790 hc         1 V16       0.041700
     27 H12         -3.4670     0.5380    -1.0580 hc         1 V16       0.041700
     28 H13         -3.2040     0.9290     1.4060 hc         1 V16       0.044700
     29 H14         -3.1690    -0.8030     1.6700 hc         1 V16       0.044700
     30 H15         -1.2520    -2.1650     0.6260 ha         1 V16       0.131000
     31 H16          1.1190    -2.1670     0.0720 ha         1 V16       0.134000
     32 H17          3.1850    -1.8670     0.5920 h5         1 V16       0.040800
     33 H19          3.0560     0.8510    -0.5900 hn         1 V16       0.456800
@<TRIPOS>BOND
     1     1    12 1   
     2     1    13 1   
     3     1    33 1   
     4     2     4 1   
     5     2    16 1   
     6     2    17 1   
     7     2    18 1   
     8     3    15 1   
     9     3    19 1   
    10     4     7 1   
    11     4    20 1   
    12     4    21 1   
    13     5    14 1   
    14     5    22 1   
    15     5    23 1   
    16     5    24 1   
    17     6     9 ar  
    18     6    14 ar  
    19     6    25 1   
    20     7     8 1   
    21     7    26 1   
    22     7    27 1   
    23     8     9 1   
    24     8    28 1   
    25     8    29 1   
    26     9    10 ar  
    27    10    11 ar  
    28    10    30 1   
    29    11    12 ar  
    30    11    31 1   
    31    12    14 ar  
    32    13    15 2   
    33    13    32 1   
@<TRIPOS>SUBSTRUCTURE
     1 V16         1 TEMP              0 ****  ****    0 ROOT
