@<TRIPOS>MOLECULE
V16
   33    33     1     0     0
SMALL
No Charge or Current Charge


@<TRIPOS>ATOM
      1 N            2.6950    -0.4660    -0.6850 nu         1 V16      -0.935200
      2 C           -6.2010    -0.0650    -1.0420 c3         1 V16      -0.088100
      3 O            4.7080     0.9480     0.2580 oh         1 V16      -0.543000
      4 C1          -5.2410    -0.0510     0.1630 c3         1 V16      -0.076400
      5 C10          1.4640     2.1900    -0.5510 c3         1 V16      -0.047800
      6 C11         -0.6190     0.9620     0.2030 ca         1 V16      -0.074000
      7 C2          -3.7540    -0.1360    -0.2470 c3         1 V16      -0.075400
      8 C3          -2.7900    -0.1220     0.9580 c3         1 V16      -0.026100
      9 C4          -1.3330    -0.2080     0.5250 ca         1 V16      -0.103300
     10 C5          -0.6930    -1.4560     0.4310 ca         1 V16      -0.077000
     11 C6           0.6500    -1.5300     0.0260 ca         1 V16      -0.159000
     12 C7           1.3670    -0.3630    -0.2860 ca         1 V16       0.310000
     13 C8           3.7130    -1.1250    -0.0260 c2         1 V16       0.603100
     14 C9           0.7290     0.8970    -0.2060 ca         1 V16      -0.122300
     15 N1           4.6650    -0.4510     0.5440 n2         1 V16      -0.419700
     16 H1          -6.0050     0.7870    -1.7040 hc         1 V16       0.032033
     17 H2          -6.0840    -0.9890    -1.6210 hc         1 V16       0.032033
     18 H3          -7.2420    -0.0020    -0.7020 hc         1 V16       0.032033
     19 H4           5.4800     1.2990     0.7690 ho         1 V16       0.467000
     20 H5          -5.4070     0.8680     0.7410 hc         1 V16       0.036700
     21 H6          -5.4850    -0.8920     0.8230 hc         1 V16       0.036700
     22 H7           1.9490     2.1260    -1.5330 hc         1 V16       0.043367
     23 H8           0.7820     3.0490    -0.5850 hc         1 V16       0.043367
     24 H9           2.2350     2.4160     0.1960 hc         1 V16       0.043367
     25 H10         -1.1180     1.9270     0.2700 ha         1 V16       0.111000
     26 H11         -3.5910    -1.0540    -0.8250 hc         1 V16       0.041700
     27 H12         -3.5130     0.7050    -0.9080 hc         1 V16       0.041700
     28 H13         -2.9550     0.7920     1.5410 hc         1 V16       0.044700
     29 H14         -3.0350    -0.9580     1.6260 hc         1 V16       0.044700
     30 H15         -1.2360    -2.3690     0.6670 ha         1 V16       0.113000
     31 H16          1.1310    -2.5000    -0.0490 ha         1 V16       0.116000
     32 H17          3.5530    -2.1940     0.1340 h5         1 V16       0.040800
     33 H19          3.0730     0.4590    -0.8780 hn         1 V16       0.512000
@<TRIPOS>BOND
     1     1    12 1   
     2     1    13 1   
     3     1    33 1   
     4     2     4 1   
     5     2    16 1   
     6     2    17 1   
     7     2    18 1   
     8     3    15 1   
     9     3    19 1   
    10     4     7 1   
    11     4    20 1   
    12     4    21 1   
    13     5    14 1   
    14     5    22 1   
    15     5    23 1   
    16     5    24 1   
    17     6     9 ar  
    18     6    14 ar  
    19     6    25 1   
    20     7     8 1   
    21     7    26 1   
    22     7    27 1   
    23     8     9 1   
    24     8    28 1   
    25     8    29 1   
    26     9    10 ar  
    27    10    11 ar  
    28    10    30 1   
    29    11    12 ar  
    30    11    31 1   
    31    12    14 ar  
    32    13    15 2   
    33    13    32 1   
@<TRIPOS>SUBSTRUCTURE
     1 V16         1 TEMP              0 ****  ****    0 ROOT
