@<TRIPOS>MOLECULE
V17
   64    69     1     0     0
SMALL
abcg2


@<TRIPOS>ATOM
      1 C4          10.0370   -20.4160   -10.6300 c6         1 V17       0.174500
      2 C14          9.4960   -17.6980    -3.8240 ca         1 V17      -0.163000
      3 C5          11.1210   -19.3120   -10.6160 c6         1 V17      -0.090400
      4 C6          10.7370   -18.0880    -9.7980 c6         1 V17       0.106000
      5 C11         10.9330   -19.2630    -5.5780 ca         1 V17      -0.045000
      6 C7           9.5670   -19.6720    -8.2910 c6         1 V17       0.106000
      7 C8           8.9470   -20.0650    -9.6210 c6         1 V17      -0.090400
      8 C10         10.3650   -18.0820    -6.0400 ca         1 V17      -0.176600
      9 C12         10.7950   -19.6730    -4.2620 ca         1 V17      -0.163000
     10 C13         10.0560   -18.8980    -3.3650 ca         1 V17       0.335000
     11 N1          10.3820   -18.4650    -8.4380 n          1 V17      -0.411800
     12 N2           9.8540   -19.2100    -2.0280 nu         1 V17      -0.927900
     13 C3          10.4900   -21.2370   -12.8580 c5         1 V17       0.141300
     14 N3           9.8100   -20.2650    -0.0190 nb         1 V17      -0.240000
     15 O           10.9740   -16.4410    -7.6180 o          1 V17      -0.599100
     16 N            9.5110   -20.5850   -11.9880 n3         1 V17      -0.687600
     17 C2           8.3770   -21.4980   -12.0950 c5         1 V17       0.141300
     18 C1           8.9520   -22.9240   -12.0320 c5         1 V17      -0.112400
     19 C           10.3790   -22.7540   -12.5900 c5         1 V17      -0.112400
     20 C15          9.6630   -17.2920    -5.1330 ca         1 V17      -0.045000
     21 C16         10.0990   -20.3490    -1.3220 ca         1 V17       0.394900
     22 N4          10.5720   -21.4230    -1.9370 nb         1 V17      -0.248000
     23 C19         10.7870   -22.5130    -1.2020 ca         1 V17       0.247800
     24 C18         10.5300   -22.5290     0.1630 ca         1 V17      -0.256000
     25 C17         10.0310   -21.3520     0.6980 ca         1 V17       0.153900
     26 C20         11.2920   -23.6700    -1.9260 cc         1 V17      -0.146200
     27 S           11.5090   -23.5330    -3.6490 ss         1 V17       0.136400
     28 C27         12.0660   -25.1690    -3.7420 ca         1 V17      -0.172000
     29 C22         12.0800   -25.7830    -2.4750 ca         1 V17      -0.084800
     30 C21         11.6300   -24.8970    -1.4510 cd         1 V17      -0.137200
     31 C26         12.4610   -25.8560    -4.8880 ca         1 V17      -0.084000
     32 C25         12.8720   -27.1680    -4.7530 ca         1 V17      -0.094000
     33 C24         12.8920   -27.7940    -3.4980 ca         1 V17      -0.116000
     34 C23         12.5020   -27.1140    -2.3650 ca         1 V17      -0.066000
     35 H1          10.5050   -21.3450   -10.2610 h1         1 V17       0.026700
     36 H3          12.0630   -19.7130   -10.2370 hc         1 V17       0.054700
     37 H4          11.3170   -18.9680   -11.6320 hc         1 V17       0.054700
     38 H5          11.5800   -17.4000    -9.7620 h1         1 V17       0.050950
     39 H6           9.9120   -17.5500   -10.2770 h1         1 V17       0.050950
     40 H7          11.5210   -19.8810    -6.2450 ha         1 V17       0.123000
     41 H8           8.7800   -19.4950    -7.5590 h1         1 V17       0.050950
     42 H9          10.1640   -20.5120    -7.9230 h1         1 V17       0.050950
     43 H10          8.3120   -19.2600   -10.0030 hc         1 V17       0.054700
     44 H11          8.2970   -20.9200    -9.4300 hc         1 V17       0.054700
     45 H12         11.2630   -20.5880    -3.9430 ha         1 V17       0.131500
     46 H13          9.4260   -18.4850    -1.4710 hn         1 V17       0.514000
     47 H14         11.4960   -20.8480   -12.7010 h1         1 V17       0.055450
     48 H15         10.2250   -21.0240   -13.8970 h1         1 V17       0.055450
     49 H17          7.9140   -21.3340   -13.0730 h1         1 V17       0.055450
     50 H18          7.6090   -21.2990   -11.3520 h1         1 V17       0.055450
     51 H19          8.3530   -23.6290   -12.6080 hc         1 V17       0.046200
     52 H20          8.9740   -23.2890   -11.0030 hc         1 V17       0.046200
     53 H21         10.5440   -23.3310   -13.5000 hc         1 V17       0.046200
     54 H22         11.1260   -23.0800   -11.8660 hc         1 V17       0.046200
     55 H23          9.2250   -16.3550    -5.4520 ha         1 V17       0.123000
     56 H24         10.6970   -23.3970     0.7830 ha         1 V17       0.139000
     57 H25          9.8000   -21.2890     1.7550 h4         1 V17       0.025100
     58 H26         11.5680   -25.1810    -0.4090 ha         1 V17       0.204000
     59 H27         12.4460   -25.3770    -5.8580 ha         1 V17       0.121000
     60 H28         13.1820   -27.7200    -5.6300 ha         1 V17       0.114000
     61 H29         13.2170   -28.8230    -3.4240 ha         1 V17       0.115000
     62 H30         12.5170   -27.5980    -1.3960 ha         1 V17       0.117000
     63 C9          10.5910   -17.5900    -7.4310 c          1 V17       0.619700
     64 H2           8.9260   -17.0780    -3.1420 ha         1 V17       0.131500
@<TRIPOS>BOND
     1     1     3 1   
     2     1     7 1   
     3     1    16 1   
     4     1    35 1   
     5     2    10 ar  
     6     2    20 ar  
     7     2    64 1   
     8     3     4 1   
     9     3    36 1   
    10     3    37 1   
    11     4    11 1   
    12     4    38 1   
    13     4    39 1   
    14     5     8 ar  
    15     5     9 ar  
    16     5    40 1   
    17     6     7 1   
    18     6    11 1   
    19     6    41 1   
    20     6    42 1   
    21     7    43 1   
    22     7    44 1   
    23     8    20 ar  
    24     8    63 1   
    25     9    10 ar  
    26     9    45 1   
    27    10    12 1   
    28    11    63 1   
    29    12    21 1   
    30    12    46 1   
    31    13    16 1   
    32    13    19 1   
    33    13    47 1   
    34    13    48 1   
    35    14    21 ar  
    36    14    25 ar  
    37    15    63 2   
    38    16    17 1   
    39    17    18 1   
    40    17    49 1   
    41    17    50 1   
    42    18    19 1   
    43    18    51 1   
    44    18    52 1   
    45    19    53 1   
    46    19    54 1   
    47    20    55 1   
    48    21    22 ar  
    49    22    23 ar  
    50    23    24 ar  
    51    23    26 1   
    52    24    25 ar  
    53    24    56 1   
    54    25    57 1   
    55    26    27 1   
    56    26    30 2   
    57    27    28 1   
    58    28    29 ar  
    59    28    31 ar  
    60    29    30 1   
    61    29    34 ar  
    62    30    58 1   
    63    31    32 ar  
    64    31    59 1   
    65    32    33 ar  
    66    32    60 1   
    67    33    34 ar  
    68    33    61 1   
    69    34    62 1   
@<TRIPOS>SUBSTRUCTURE
     1 V17         1 TEMP              0 ****  ****    0 ROOT
