@<TRIPOS>MOLECULE
V17
   64    69     1     0     0
SMALL
No Charge or Current Charge


@<TRIPOS>ATOM
      1 C4          10.2650   -20.4670   -10.8210 c6         1 V17       0.174500
      2 C14          9.2900   -17.7310    -3.7100 ca         1 V17      -0.163000
      3 C5          11.2580   -19.2630   -10.7290 c6         1 V17      -0.090400
      4 C6          10.7450   -18.1170    -9.8250 c6         1 V17       0.106000
      5 C11         10.9860   -19.0730    -5.4910 ca         1 V17      -0.045000
      6 C7          10.0720   -19.9910    -8.2930 c6         1 V17       0.106000
      7 C8           9.3540   -20.5100    -9.5580 c6         1 V17      -0.090400
      8 C10         10.1530   -18.0410    -5.9780 ca         1 V17      -0.176600
      9 C12         10.9470   -19.4410    -4.1350 ca         1 V17      -0.163000
     10 C13         10.0850   -18.7860    -3.2390 ca         1 V17       0.335000
     11 N1          10.4840   -18.5610    -8.4260 n          1 V17      -0.411800
     12 N2          10.0230   -19.1170    -1.8820 nu         1 V17      -0.927900
     13 C3          10.2040   -20.6180   -13.3620 c5         1 V17       0.141300
     14 N3          10.1890   -20.1310     0.1790 nb         1 V17      -0.240000
     15 O           10.0130   -16.4300    -7.7250 o          1 V17      -0.599100
     16 N            9.4530   -20.4430   -12.0870 n3         1 V17      -0.687600
     17 C2           8.4140   -21.4990   -12.2420 c5         1 V17       0.141300
     18 C1           9.2540   -22.7510   -12.6130 c5         1 V17      -0.112400
     19 C           10.4540   -22.1530   -13.4140 c5         1 V17      -0.112400
     20 C15          9.3230   -17.3570    -5.0650 ca         1 V17      -0.045000
     21 C16         10.2440   -20.2800    -1.1550 ca         1 V17       0.394900
     22 N4          10.4670   -21.4240    -1.8250 nb         1 V17      -0.248000
     23 C19         10.6650   -22.5380    -1.0930 ca         1 V17       0.247800
     24 C18         10.6320   -22.4840     0.3140 ca         1 V17      -0.256000
     25 C17         10.3850   -21.2410     0.9160 ca         1 V17       0.153900
     26 C20         10.9260   -23.7840    -1.8100 cc         1 V17      -0.146200
     27 S           10.3320   -24.1720    -3.4480 ss         1 V17       0.136400
     28 C27         11.3100   -25.6700    -3.4010 ca         1 V17      -0.172000
     29 C22         12.0370   -25.8300    -2.2370 ca         1 V17      -0.084800
     30 C21         11.8190   -24.7260    -1.3330 cd         1 V17      -0.137200
     31 C26         11.3770   -26.6280    -4.4260 ca         1 V17      -0.084000
     32 C25         12.2010   -27.7580    -4.2450 ca         1 V17      -0.094000
     33 C24         12.9440   -27.9160    -3.0540 ca         1 V17      -0.116000
     34 C23         12.8660   -26.9440    -2.0360 ca         1 V17      -0.066000
     35 H1          10.8810   -21.3780   -10.8040 h1         1 V17       0.026700
     36 H3          12.2110   -19.6240   -10.3190 hc         1 V17       0.054700
     37 H4          11.5010   -18.8510   -11.7140 hc         1 V17       0.054700
     38 H5          11.4930   -17.3110    -9.8130 h1         1 V17       0.050950
     39 H6           9.8200   -17.7020   -10.2520 h1         1 V17       0.050950
     40 H7          11.6880   -19.5770    -6.1510 ha         1 V17       0.123000
     41 H8           9.3910   -20.1070    -7.4380 h1         1 V17       0.050950
     42 H9          10.9600   -20.6090    -8.0980 h1         1 V17       0.050950
     43 H10          8.4520   -19.9040    -9.7210 hc         1 V17       0.054700
     44 H11          9.0110   -21.5390    -9.3820 hc         1 V17       0.054700
     45 H12         11.6140   -20.2220    -3.7870 ha         1 V17       0.131500
     46 H13          9.6510   -18.3690    -1.2980 hn         1 V17       0.514000
     47 H14         11.1420   -20.0500   -13.4190 h1         1 V17       0.055450
     48 H15          9.5890   -20.3030   -14.2180 h1         1 V17       0.055450
     49 H17          7.7240   -21.2450   -13.0610 h1         1 V17       0.055450
     50 H18          7.7970   -21.6570   -11.3470 h1         1 V17       0.055450
     51 H19          8.6730   -23.4700   -13.2010 hc         1 V17       0.046200
     52 H20          9.6020   -23.2750   -11.7150 hc         1 V17       0.046200
     53 H21         10.4910   -22.5190   -14.4460 hc         1 V17       0.046200
     54 H22         11.4090   -22.4170   -12.9450 hc         1 V17       0.046200
     55 H23          8.6900   -16.5400    -5.4080 ha         1 V17       0.123000
     56 H24         10.7790   -23.3720     0.9210 ha         1 V17       0.139000
     57 H25         10.3420   -21.1310     1.9980 h4         1 V17       0.025100
     58 H26         12.3370   -24.6330    -0.3820 ha         1 V17       0.204000
     59 H27         10.8060   -26.5020    -5.3430 ha         1 V17       0.121000
     60 H28         12.2660   -28.5110    -5.0280 ha         1 V17       0.114000
     61 H29         13.5790   -28.7890    -2.9220 ha         1 V17       0.115000
     62 H30         13.4360   -27.0570    -1.1160 ha         1 V17       0.117000
     63 C9          10.1770   -17.6080    -7.4290 c          1 V17       0.619700
     64 H2           8.6320   -17.1990    -3.0280 ha         1 V17       0.131500
@<TRIPOS>BOND
     1     1     3 1   
     2     1     7 1   
     3     1    16 1   
     4     1    35 1   
     5     2    10 ar  
     6     2    20 ar  
     7     2    64 1   
     8     3     4 1   
     9     3    36 1   
    10     3    37 1   
    11     4    11 1   
    12     4    38 1   
    13     4    39 1   
    14     5     8 ar  
    15     5     9 ar  
    16     5    40 1   
    17     6     7 1   
    18     6    11 1   
    19     6    41 1   
    20     6    42 1   
    21     7    43 1   
    22     7    44 1   
    23     8    20 ar  
    24     8    63 1   
    25     9    10 ar  
    26     9    45 1   
    27    10    12 1   
    28    11    63 1   
    29    12    21 1   
    30    12    46 1   
    31    13    16 1   
    32    13    19 1   
    33    13    47 1   
    34    13    48 1   
    35    14    21 ar  
    36    14    25 ar  
    37    15    63 2   
    38    16    17 1   
    39    17    18 1   
    40    17    49 1   
    41    17    50 1   
    42    18    19 1   
    43    18    51 1   
    44    18    52 1   
    45    19    53 1   
    46    19    54 1   
    47    20    55 1   
    48    21    22 ar  
    49    22    23 ar  
    50    23    24 ar  
    51    23    26 1   
    52    24    25 ar  
    53    24    56 1   
    54    25    57 1   
    55    26    27 1   
    56    26    30 2   
    57    27    28 1   
    58    28    29 ar  
    59    28    31 ar  
    60    29    30 1   
    61    29    34 ar  
    62    30    58 1   
    63    31    32 ar  
    64    31    59 1   
    65    32    33 ar  
    66    32    60 1   
    67    33    34 ar  
    68    33    61 1   
    69    34    62 1   
@<TRIPOS>SUBSTRUCTURE
     1 V17         1 TEMP              0 ****  ****    0 ROOT
