@<TRIPOS>MOLECULE
V18
   43    47     1     0     0
SMALL
No Charge or Current Charge


@<TRIPOS>ATOM
      1 C4          11.2680    -0.4870    23.2340 cy         1 V18      -0.064700
      2 C14          5.3460     2.5690    19.3330 ca         1 V18      -0.096000
      3 C5          12.0980     0.8980    23.1680 cy         1 V18      -0.071700
      4 C6          13.5460     0.3020    22.9760 cy         1 V18      -0.087400
      5 C11          6.8550     0.7530    19.8750 ca         1 V18      -0.074000
      6 C7          13.6830     0.1520    24.5330 cy         1 V18      -0.092400
      7 C8          12.4150     1.0620    24.7040 cy         1 V18      -0.087400
      8 C9          10.9630    -0.6430    21.6800 cy         1 V18      -0.080900
      9 C10          8.9390     0.5560    21.2650 c          1 V18       0.578000
     10 C12          6.6660     0.2850    18.5560 ca         1 V18       0.348900
     11 C13          5.2390     2.0300    18.0350 ca         1 V18       0.372900
     12 N1           8.5040    -1.7010    21.9630 ns         1 V18      -0.508900
     13 N2           7.7340     0.0270    20.7590 n          1 V18      -0.223000
     14 C3           9.8150     0.1300    23.4360 cy         1 V18      -0.080900
     15 N3           5.8810     0.9050    17.6460 nb         1 V18      -0.658000
     16 C1           7.4840    -1.3010    21.1490 c          1 V18       0.622000
     17 C2           9.4590    -0.6670    22.1310 cy         1 V18       0.003400
     18 O2           9.3230     1.6870    20.9790 o          1 V18      -0.484000
     19 C15          4.6390     3.7360    19.6830 ca         1 V18      -0.080000
     20 C16          4.7390     4.2530    20.9850 ca         1 V18      -0.109000
     21 C17          5.5400     3.6040    21.9390 ca         1 V18      -0.088000
     22 C18          6.2480     2.4400    21.5930 ca         1 V18      -0.096000
     23 C19          6.1650     1.9200    20.2820 ca         1 V18       0.004000
     24 H1          11.5640    -1.3690    23.8150 hc         1 V18       0.058700
     25 H2          11.7710     1.7610    22.5740 hc         1 V18       0.064700
     26 H3          13.6460    -0.6260    22.4000 hc         1 V18       0.050950
     27 H4          14.2510     1.0250    22.5510 hc         1 V18       0.050950
     28 H5          13.5620    -0.8720    24.9040 hc         1 V18       0.048700
     29 H6          14.6080     0.5570    24.9590 hc         1 V18       0.048700
     30 H7          12.6620     2.0930    24.9800 hc         1 V18       0.050950
     31 H8          11.6690     0.7040    25.4230 hc         1 V18       0.050950
     32 H9          11.3170    -1.5880    21.2540 hc         1 V18       0.071200
     33 H10         11.2980     0.1530    21.0030 hc         1 V18       0.071200
     34 H11          7.1770    -0.6130    18.2120 h4         1 V18       0.027100
     35 H12          4.6130     2.5090    17.2830 h4         1 V18       0.021100
     36 H13          8.5380    -2.6320    22.3640 hn         1 V18       0.351500
     37 H14          9.7100     1.2230    23.4320 hc         1 V18       0.071200
     38 H15          9.3030    -0.2320    24.3350 hc         1 V18       0.071200
     39 H16          4.0100     4.2390    18.9510 ha         1 V18       0.118000
     40 H17          4.1920     5.1530    21.2560 ha         1 V18       0.117000
     41 H18          5.6100     4.0010    22.9490 ha         1 V18       0.115000
     42 H19          6.8500     1.9510    22.3540 ha         1 V18       0.119000
     43 O1           6.5300    -1.9890    20.8270 o          1 V18      -0.528000
@<TRIPOS>BOND
     1     1     3 1   
     2     1     8 1   
     3     1    14 1   
     4     1    24 1   
     5     2    11 ar  
     6     2    19 ar  
     7     2    23 ar  
     8     3     4 1   
     9     3     7 1   
    10     3    25 1   
    11     4     6 1   
    12     4    26 1   
    13     4    27 1   
    14     5    10 ar  
    15     5    13 1   
    16     5    23 ar  
    17     6     7 1   
    18     6    28 1   
    19     6    29 1   
    20     7    30 1   
    21     7    31 1   
    22     8    17 1   
    23     8    32 1   
    24     8    33 1   
    25     9    13 1   
    26     9    17 1   
    27     9    18 2   
    28    10    15 ar  
    29    10    34 1   
    30    11    15 ar  
    31    11    35 1   
    32    12    16 1   
    33    12    17 1   
    34    12    36 1   
    35    13    16 1   
    36    14    17 1   
    37    14    37 1   
    38    14    38 1   
    39    16    43 2   
    40    19    20 ar  
    41    19    39 1   
    42    20    21 ar  
    43    20    40 1   
    44    21    22 ar  
    45    21    41 1   
    46    22    23 ar  
    47    22    42 1   
@<TRIPOS>SUBSTRUCTURE
     1 V18         1 TEMP              0 ****  ****    0 ROOT
