@<TRIPOS>MOLECULE
V18
   43    47     1     0     0
SMALL
abcg2


@<TRIPOS>ATOM
      1 C4          11.3860    -0.1390    23.1460 cy         1 V18      -0.064700
      2 C14          4.9570     2.4380    19.1930 ca         1 V18      -0.096000
      3 C5          12.6840     0.5760    23.4280 cy         1 V18      -0.071700
      4 C6          13.9280    -0.3210    23.2410 cy         1 V18      -0.087400
      5 C11          6.7720     0.9590    19.7520 ca         1 V18      -0.074000
      6 C7          13.9410    -0.5690    24.7620 cy         1 V18      -0.092400
      7 C8          13.0230     0.6570    24.9350 cy         1 V18      -0.087400
      8 C9          11.0130    -0.3830    21.6700 cy         1 V18      -0.080900
      9 C10          8.8990     0.9900    20.9980 c          1 V18       0.578000
     10 C12          6.7730     0.5400    18.4510 ca         1 V18       0.348900
     11 C13          5.0570     1.9200    17.8810 ca         1 V18       0.372900
     12 N1           8.5890    -0.9920    22.0970 ns         1 V18      -0.508900
     13 N2           7.7000     0.4150    20.6630 n          1 V18      -0.223000
     14 C3          10.0790     0.6630    23.3090 cy         1 V18      -0.080900
     15 N3           5.9210     1.0120    17.5180 nb         1 V18      -0.658000
     16 C1           7.4980    -0.8040    21.3370 c          1 V18       0.622000
     17 C2           9.5640     0.0580    21.9820 cy         1 V18       0.003400
     18 O2           9.3270     2.0350    20.5800 o          1 V18      -0.484000
     19 C15          4.0060     3.4220    19.5390 ca         1 V18      -0.080000
     20 C16          3.9440     3.8920    20.8210 ca         1 V18      -0.109000
     21 C17          4.8280     3.3940    21.8010 ca         1 V18      -0.088000
     22 C18          5.7600     2.4390    21.4940 ca         1 V18      -0.096000
     23 C19          5.8460     1.9420    20.1750 ca         1 V18       0.004000
     24 H1          11.3390    -1.0740    23.7150 hc         1 V18       0.058700
     25 H2          12.6940     1.5250    22.8830 hc         1 V18       0.064700
     26 H3          13.8240    -1.1880    22.5850 hc         1 V18       0.050950
     27 H4          14.7980     0.2510    22.9150 hc         1 V18       0.050950
     28 H5          13.4400    -1.5000    25.0330 hc         1 V18       0.048700
     29 H6          14.9080    -0.5450    25.2650 hc         1 V18       0.048700
     30 H7          13.5850     1.5590    25.1800 hc         1 V18       0.050950
     31 H8          12.1900     0.5730    25.6360 hc         1 V18       0.050950
     32 H9          11.1220    -1.3890    21.2670 hc         1 V18       0.071200
     33 H10         11.5080     0.3240    21.0010 hc         1 V18       0.071200
     34 H11          7.4840    -0.2100    18.1250 h4         1 V18       0.027100
     35 H12          4.3790     2.2930    17.1180 h4         1 V18       0.021100
     36 H13          8.7030    -1.8040    22.6830 hn         1 V18       0.351500
     37 H14         10.2460     1.7380    23.2140 hc         1 V18       0.071200
     38 H15          9.4570     0.4750    24.1830 hc         1 V18       0.071200
     39 H16          3.3320     3.7940    18.7770 ha         1 V18       0.118000
     40 H17          3.2160     4.6450    21.0910 ha         1 V18       0.117000
     41 H18          4.7650     3.7730    22.8130 ha         1 V18       0.115000
     42 H19          6.4250     2.0660    22.2610 ha         1 V18       0.119000
     43 O1           6.5160    -1.4970    21.2130 o          1 V18      -0.528000
@<TRIPOS>BOND
     1     1     3 1   
     2     1     8 1   
     3     1    14 1   
     4     1    24 1   
     5     2    11 ar  
     6     2    19 ar  
     7     2    23 ar  
     8     3     4 1   
     9     3     7 1   
    10     3    25 1   
    11     4     6 1   
    12     4    26 1   
    13     4    27 1   
    14     5    10 ar  
    15     5    13 1   
    16     5    23 ar  
    17     6     7 1   
    18     6    28 1   
    19     6    29 1   
    20     7    30 1   
    21     7    31 1   
    22     8    17 1   
    23     8    32 1   
    24     8    33 1   
    25     9    13 1   
    26     9    17 1   
    27     9    18 2   
    28    10    15 ar  
    29    10    34 1   
    30    11    15 ar  
    31    11    35 1   
    32    12    16 1   
    33    12    17 1   
    34    12    36 1   
    35    13    16 1   
    36    14    17 1   
    37    14    37 1   
    38    14    38 1   
    39    16    43 2   
    40    19    20 ar  
    41    19    39 1   
    42    20    21 ar  
    43    20    40 1   
    44    21    22 ar  
    45    21    41 1   
    46    22    23 ar  
    47    22    42 1   
@<TRIPOS>SUBSTRUCTURE
     1 V18         1 TEMP              0 ****  ****    0 ROOT
